# MODFLOW2000 General Head Boundary Package
PARAMETER  0  0
      5576        50
      5576         0                      Stress Period 1
         6       136       265 540.8100030.0000000         5
         6       136       266 540.8100030.0000000         5
         6       136       269 540.8100030.0000000         5
         6       136       270 540.8100030.0000000         5
         6       137       265 540.8100030.0000000         5
         6       137       266 540.8100030.0000000         5
         6       137       267 540.8100030.0000000         5
         6       137       269 540.8100030.0000000         5
         6       137       270 540.8100030.0000000         5
         6       138       266 540.8100030.0000000         5
         6       138       267 540.8100030.0000000         5
         6       138       268 540.8100030.0000000         5
         6       138       269 540.8100030.0000000         5
         6       138       270 540.8100030.0000000         5
         6       139       267 540.8100030.0000000         5
         6       139       268 540.8100030.0000000         5
         6       139       269 540.8100030.0000000         5
         6       139       270 540.8100030.0000000         5
         6       139       271 540.8100030.0000000         5
         6       140       268 540.8100030.0000000         5
         6       140       269 540.8100030.0000000         5
         6       140       270 540.8100030.0000000         5
         6       140       271 540.8100030.0000000         5
         6       141       268 540.8100030.0000000         5
         6       141       269 540.8100030.0000000         5
         6       141       270 540.8100030.0000000         5
         6       141       271 540.8100030.0000000         5
         6       141       272 540.8100030.0000000         5
         6       142       261 540.8100030.0000000         5
         6       142       262 540.8100030.0000000         5
         6       142       263 540.8100030.0000000         5
         6       142       266 540.8100030.0000000         5
         6       142       269 540.8100030.0000000         5
         6       142       270 540.8100030.0000000         5
         6       142       271 540.8100030.0000000         5
         6       142       272 540.8100030.0000000         5
         6       142       274 540.8100030.0000000         5
         6       142       281 540.8100030.0000000         5
         6       143       261 540.8100030.0000000         5
         6       143       263 540.8100030.0000000         5
         6       143       264 540.8100030.0000000         5
         6       143       270 540.8100030.0000000         5
         6       143       271 540.8100030.0000000         5
         6       143       272 540.8100030.0000000         5
         6       143       273 540.8100030.0000000         5
         6       143       274 540.8100030.0000000         5
         6       143       275 540.8100030.0000000         5
         6       143       281 540.8100030.0000000         5
         6       143       282 540.8100030.0000000         5
         6       144       265 540.8100030.0000000         5
         6       144       267 540.8100030.0000000         5
         6       144       270 540.8100030.0000000         5
         6       144       271 540.8100030.0000000         5
         6       144       272 540.8100030.0000000         5
         6       144       273 540.8100030.0000000         5
         6       144       274 540.8100030.0000000         5
         6       144       275 540.8100030.0000000         5
         6       144       276 540.8100030.0000000         5
         6       144       280 540.8100030.0000000         5
         6       144       281 540.8100030.0000000         5
         6       144       282 540.8100030.0000000         5
         6       144       283 540.8100030.0000000         5
         6       145       266 540.8100030.0000000         5
         6       145       267 540.8100030.0000000         5
         6       145       270 540.8100030.0000000         5
         6       145       271 540.8100030.0000000         5
         6       145       272 540.8100030.0000000         5
         6       145       273 540.8100030.0000000         5
         6       145       274 540.8100030.0000000         5
         6       145       275 540.8100030.0000000         5
         6       145       276 540.8100030.0000000         5
         6       145       277 540.8100030.0000000         5
         6       145       278 540.8100030.0000000         5
         6       145       279 540.8100030.0000000         5
         6       145       280 540.8100030.0000000         5
         6       145       281 540.8100030.0000000         5
         6       145       282 540.8100030.0000000         5
         6       145       283 540.8100030.0000000         5
         6       145       284 540.8100030.0000000         5
         6       146       267 540.8100030.0000000         5
         6       146       268 540.8100030.0000000         5
         6       146       271 540.8100030.0000000         5
         6       146       272 540.8100030.0000000         5
         6       146       273 540.8100030.0000000         5
         6       146       274 540.8100030.0000000         5
         6       146       276 540.8100030.0000000         5
         6       146       277 540.8100030.0000000         5
         6       146       278 540.8100030.0000000         5
         6       146       279 540.8100030.0000000         5
         6       146       280 540.8100030.0000000         5
         6       146       281 540.8100030.0000000         5
         6       146       282 540.8100030.0000000         5
         6       146       283 540.8100030.0000000         5
         6       146       284 540.8100030.0000000         5
         6       147       267 540.8100030.0000000         5
         6       147       268 540.8100030.0000000         5
         6       147       269 540.8100030.0000000         5
         6       147       270 540.8100030.0000000         5
         6       147       271 540.8100030.0000000         5
         6       147       272 540.8100030.0000000         5
         6       147       273 540.8100030.0000000         5
         6       147       274 540.8100030.0000000         5
         6       147       276 540.8100030.0000000         5
         6       147       277 540.8100030.0000000         5
         6       147       278 540.8100030.0000000         5
         6       147       279 540.8100030.0000000         5
         6       147       280 540.8100030.0000000         5
         6       147       281 540.8100030.0000000         5
         6       147       283 540.8100030.0000000         5
         6       147       284 540.8100030.0000000         5
         6       147       285 540.8100030.0000000         5
         6       148       261 540.8100030.0000000         5
         6       148       268 540.8100030.0000000         5
         6       148       269 540.8100030.0000000         5
         6       148       270 540.8100030.0000000         5
         6       148       271 540.8100030.0000000         5
         6       148       272 540.8100030.0000000         5
         6       148       273 540.8100030.0000000         5
         6       148       274 540.8100030.0000000         5
         6       148       277 540.8100030.0000000         5
         6       148       278 540.8100030.0000000         5
         6       148       279 540.8100030.0000000         5
         6       148       284 540.8100030.0000000         5
         6       148       285 540.8100030.0000000         5
         6       149       261 540.8100030.0000000         5
         6       149       262 540.8100030.0000000         5
         6       149       263 540.8100030.0000000         5
         6       149       268 540.8100030.0000000         5
         6       149       269 540.8100030.0000000         5
         6       149       270 540.8100030.0000000         5
         6       149       271 540.8100030.0000000         5
         6       149       272 540.8100030.0000000         5
         6       149       273 540.8100030.0000000         5
         6       149       277 540.8100030.0000000         5
         6       149       284 540.8100030.0000000         5
         6       149       285 540.8100030.0000000         5
         6       150       261 540.8100030.0000000         5
         6       150       262 540.8100030.0000000         5
         6       150       263 540.8100030.0000000         5
         6       150       264 540.8100030.0000000         5
         6       150       268 540.8100030.0000000         5
         6       150       269 540.8100030.0000000         5
         6       150       270 540.8100030.0000000         5
         6       150       271 540.8100030.0000000         5
         6       150       272 540.8100030.0000000         5
         6       150       273 540.8100030.0000000         5
         6       150       274 540.8100030.0000000         5
         6       150       284 540.8100030.0000000         5
         6       150       285 540.8100030.0000000         5
         6       151       259 540.8100030.0000000         5
         6       151       264 540.8100030.0000000         5
         6       151       265 540.8100030.0000000         5
         6       151       266 540.8100030.0000000         5
         6       151       267 540.8100030.0000000         5
         6       151       268 540.8100030.0000000         5
         6       151       269 540.8100030.0000000         5
         6       151       270 540.8100030.0000000         5
         6       151       271 540.8100030.0000000         5
         6       151       272 540.8100030.0000000         5
         6       151       273 540.8100030.0000000         5
         6       151       283 540.8100030.0000000         5
         6       151       284 540.8100030.0000000         5
         6       152       260 540.8100030.0000000         5
         6       152       264 540.8100030.0000000         5
         6       152       265 540.8100030.0000000         5
         6       152       266 540.8100030.0000000         5
         6       152       267 540.8100030.0000000         5
         6       152       268 540.8100030.0000000         5
         6       152       269 540.8100030.0000000         5
         6       152       270 540.8100030.0000000         5
         6       152       271 540.8100030.0000000         5
         6       152       272 540.8100030.0000000         5
         6       152       273 540.8100030.0000000         5
         6       152       281 540.8100030.0000000         5
         6       152       282 540.8100030.0000000         5
         6       152       283 540.8100030.0000000         5
         6       152       284 540.8100030.0000000         5
         6       153       261 540.8100030.0000000         5
         6       153       263 540.8100030.0000000         5
         6       153       264 540.8100030.0000000         5
         6       153       265 540.8100030.0000000         5
         6       153       266 540.8100030.0000000         5
         6       153       267 540.8100030.0000000         5
         6       153       268 540.8100030.0000000         5
         6       153       269 540.8100030.0000000         5
         6       153       270 540.8100030.0000000         5
         6       153       271 540.8100030.0000000         5
         6       153       272 540.8100030.0000000         5
         6       153       273 540.8100030.0000000         5
         6       153       277 540.8100030.0000000         5
         6       153       278 540.8100030.0000000         5
         6       153       279 540.8100030.0000000         5
         6       153       280 540.8100030.0000000         5
         6       153       281 540.8100030.0000000         5
         6       153       282 540.8100030.0000000         5
         6       153       283 540.8100030.0000000         5
         6       153       284 540.8100030.0000000         5
         6       154       265 540.8100030.0000000         5
         6       154       266 540.8100030.0000000         5
         6       154       267 540.8100030.0000000         5
         6       154       268 540.8100030.0000000         5
         6       154       269 540.8100030.0000000         5
         6       154       270 540.8100030.0000000         5
         6       154       271 540.8100030.0000000         5
         6       154       272 540.8100030.0000000         5
         6       154       276 540.8100030.0000000         5
         6       154       277 540.8100030.0000000         5
         6       154       278 540.8100030.0000000         5
         6       154       279 540.8100030.0000000         5
         6       154       280 540.8100030.0000000         5
         6       154       281 540.8100030.0000000         5
         6       154       282 540.8100030.0000000         5
         6       154       283 540.8100030.0000000         5
         6       154       284 540.8100030.0000000         5
         6       154       285 540.8100030.0000000         5
         6       155       263 540.8100030.0000000         5
         6       155       264 540.8100030.0000000         5
         6       155       265 540.8100030.0000000         5
         6       155       266 540.8100030.0000000         5
         6       155       267 540.8100030.0000000         5
         6       155       268 540.8100030.0000000         5
         6       155       269 540.8100030.0000000         5
         6       155       270 540.8100030.0000000         5
         6       155       271 540.8100030.0000000         5
         6       155       272 540.8100030.0000000         5
         6       155       274 540.8100030.0000000         5
         6       155       276 540.8100030.0000000         5
         6       155       277 540.8100030.0000000         5
         6       155       278 540.8100030.0000000         5
         6       155       280 540.8100030.0000000         5
         6       155       282 540.8100030.0000000         5
         6       155       285 540.8100030.0000000         5
         6       156       263 540.8100030.0000000         5
         6       156       264 540.8100030.0000000         5
         6       156       265 540.8100030.0000000         5
         6       156       266 540.8100030.0000000         5
         6       156       268 540.8100030.0000000         5
         6       156       269 540.8100030.0000000         5
         6       156       270 540.8100030.0000000         5
         6       156       271 540.8100030.0000000         5
         6       156       272 540.8100030.0000000         5
         6       156       274 540.8100030.0000000         5
         6       156       275 540.8100030.0000000         5
         6       156       276 540.8100030.0000000         5
         6       156       277 540.8100030.0000000         5
         6       156       278 540.8100030.0000000         5
         6       156       285 540.8100030.0000000         5
         6       157       265 540.8100030.0000000         5
         6       157       266 540.8100030.0000000         5
         6       157       268 540.8100030.0000000         5
         6       157       269 540.8100030.0000000         5
         6       157       270 540.8100030.0000000         5
         6       157       271 540.8100030.0000000         5
         6       157       272 540.8100030.0000000         5
         6       157       274 540.8100030.0000000         5
         6       157       275 540.8100030.0000000         5
         6       157       276 540.8100030.0000000         5
         6       157       277 540.8100030.0000000         5
         6       157       278 540.8100030.0000000         5
         6       157       285 540.8100030.0000000         5
         6       158       266 540.8100030.0000000         5
         6       158       267 540.8100030.0000000         5
         6       158       268 540.8100030.0000000         5
         6       158       269 540.8100030.0000000         5
         6       158       270 540.8100030.0000000         5
         6       158       271 540.8100030.0000000         5
         6       158       272 540.8100030.0000000         5
         6       158       273 540.8100030.0000000         5
         6       158       274 540.8100030.0000000         5
         6       158       275 540.8100030.0000000         5
         6       158       276 540.8100030.0000000         5
         6       158       277 540.8100030.0000000         5
         6       158       283 540.8100030.0000000         5
         6       158       286 540.8100030.0000000         5
         6       159       265 540.8100030.0000000         5
         6       159       267 540.8100030.0000000         5
         6       159       268 540.8100030.0000000         5
         6       159       269 540.8100030.0000000         5
         6       159       270 540.8100030.0000000         5
         6       159       271 540.8100030.0000000         5
         6       159       272 540.8100030.0000000         5
         6       159       273 540.8100030.0000000         5
         6       159       274 540.8100030.0000000         5
         6       159       275 540.8100030.0000000         5
         6       159       276 540.8100030.0000000         5
         6       159       277 540.8100030.0000000         5
         6       159       281 540.8100030.0000000         5
         6       159       282 540.8100030.0000000         5
         6       159       286 540.8100030.0000000         5
         6       159       287 540.8100030.0000000         5
         6       160       265 540.8100030.0000000         5
         6       160       266 540.8100030.0000000         5
         6       160       267 540.8100030.0000000         5
         6       160       268 540.8100030.0000000         5
         6       160       269 540.8100030.0000000         5
         6       160       270 540.8100030.0000000         5
         6       160       271 540.8100030.0000000         5
         6       160       272 540.8100030.0000000         5
         6       160       273 540.8100030.0000000         5
         6       160       274 540.8100030.0000000         5
         6       160       275 540.8100030.0000000         5
         6       160       276 540.8100030.0000000         5
         6       160       277 540.8100030.0000000         5
         6       160       280 540.8100030.0000000         5
         6       160       281 540.8100030.0000000         5
         6       160       282 540.8100030.0000000         5
         6       160       283 540.8100030.0000000         5
         6       160       284 540.8100030.0000000         5
         6       160       285 540.8100030.0000000         5
         6       160       286 540.8100030.0000000         5
         6       160       287 540.8100030.0000000         5
         6       160       288 540.8100030.0000000         5
         6       161       267 540.8100030.0000000         5
         6       161       268 540.8100030.0000000         5
         6       161       269 540.8100030.0000000         5
         6       161       270 540.8100030.0000000         5
         6       161       271 540.8100030.0000000         5
         6       161       272 540.8100030.0000000         5
         6       161       273 540.8100030.0000000         5
         6       161       274 540.8100030.0000000         5
         6       161       275 540.8100030.0000000         5
         6       161       276 540.8100030.0000000         5
         6       161       280 540.8100030.0000000         5
         6       161       281 540.8100030.0000000         5
         6       161       282 540.8100030.0000000         5
         6       161       283 540.8100030.0000000         5
         6       161       284 540.8100030.0000000         5
         6       161       285 540.8100030.0000000         5
         6       161       286 540.8100030.0000000         5
         6       162       267 540.8100030.0000000         5
         6       162       269 540.8100030.0000000         5
         6       162       270 540.8100030.0000000         5
         6       162       271 540.8100030.0000000         5
         6       162       272 540.8100030.0000000         5
         6       162       273 540.8100030.0000000         5
         6       162       274 540.8100030.0000000         5
         6       162       275 540.8100030.0000000         5
         6       162       276 540.8100030.0000000         5
         6       162       277 540.8100030.0000000         5
         6       162       280 540.8100030.0000000         5
         6       162       281 540.8100030.0000000         5
         6       162       282 540.8100030.0000000         5
         6       162       283 540.8100030.0000000         5
         6       162       284 540.8100030.0000000         5
         6       162       285 540.8100030.0000000         5
         6       162       286 540.8100030.0000000         5
         6       163       269 540.8100030.0000000         5
         6       163       270 540.8100030.0000000         5
         6       163       271 540.8100030.0000000         5
         6       163       272 540.8100030.0000000         5
         6       163       273 540.8100030.0000000         5
         6       163       274 540.8100030.0000000         5
         6       163       275 540.8100030.0000000         5
         6       163       276 540.8100030.0000000         5
         6       163       277 540.8100030.0000000         5
         6       163       278 540.8100030.0000000         5
         6       163       280 540.8100030.0000000         5
         6       163       281 540.8100030.0000000         5
         6       163       284 540.8100030.0000000         5
         6       163       285 540.8100030.0000000         5
         6       163       286 540.8100030.0000000         5
         6       164       272 540.8100030.0000000         5
         6       164       273 540.8100030.0000000         5
         6       164       274 540.8100030.0000000         5
         6       164       276 540.8100030.0000000         5
         6       164       277 540.8100030.0000000         5
         6       164       278 540.8100030.0000000         5
         6       164       280 540.8100030.0000000         5
         6       164       284 540.8100030.0000000         5
         6       164       285 540.8100030.0000000         5
         6       164       286 540.8100030.0000000         5
         6       165       273 540.8100030.0000000         5
         6       165       277 540.8100030.0000000         5
         6       165       278 540.8100030.0000000         5
         6       165       279 540.8100030.0000000         5
         6       165       280 540.8100030.0000000         5
         6       165       285 540.8100030.0000000         5
         6       165       286 540.8100030.0000000         5
         6       165       287 540.8100030.0000000         5
         6       166       277 540.8100030.0000000         5
         6       166       279 540.8100030.0000000         5
         6       166       280 540.8100030.0000000         5
         6       166       281 540.8100030.0000000         5
         6       166       285 540.8100030.0000000         5
         6       166       286 540.8100030.0000000         5
         6       166       287 540.8100030.0000000         5
         6       167       275 540.8100030.0000000         5
         6       167       277 540.8100030.0000000         5
         6       167       280 540.8100030.0000000         5
         6       167       281 540.8100030.0000000         5
         6       167       282 540.8100030.0000000         5
         6       167       283 540.8100030.0000000         5
         6       167       284 540.8100030.0000000         5
         6       167       285 540.8100030.0000000         5
         6       167       286 540.8100030.0000000         5
         6       167       287 540.8100030.0000000         5
         6       168       275 540.8100030.0000000         5
         6       168       276 540.8100030.0000000         5
         6       168       277 540.8100030.0000000         5
         6       168       281 540.8100030.0000000         5
         6       168       282 540.8100030.0000000         5
         6       168       283 540.8100030.0000000         5
         6       168       284 540.8100030.0000000         5
         6       168       285 540.8100030.0000000         5
         6       168       286 540.8100030.0000000         5
         6       168       287 540.8100030.0000000         5
         6       169       276 540.8100030.0000000         5
         6       169       277 540.8100030.0000000         5
         6       169       282 540.8100030.0000000         5
         6       169       284 540.8100030.0000000         5
         6       169       285 540.8100030.0000000         5
         6       169       286 540.8100030.0000000         5
         6       169       287 540.8100030.0000000         5
         6       170       276 540.8100030.0000000         5
         6       170       277 540.8100030.0000000         5
         6       171       276 540.8100030.0000000         5
         6       171       277 540.8100030.0000000         5
         6       171       278 540.8100030.0000000         5
         6       171       282 540.8100030.0000000         5
         6       172       276 540.8100030.0000000         5
         6       172       277 540.8100030.0000000         5
         6       172       278 540.8100030.0000000         5
         6       172       282 540.8100030.0000000         5
         6       173       274 540.8100030.0000000         5
         6       173       276 540.8100030.0000000         5
         6       173       277 540.8100030.0000000         5
         6       173       278 540.8100030.0000000         5
         6       173       279 540.8100030.0000000         5
         6       173       283 540.8100030.0000000         5
         6       174       275 540.8100030.0000000         5
         6       174       276 540.8100030.0000000         5
         6       174       277 540.8100030.0000000         5
         6       174       278 540.8100030.0000000         5
         6       174       279 540.8100030.0000000         5
         6       174       280 540.8100030.0000000         5
         6       174       282 540.8100030.0000000         5
         6       175       275 540.8100030.0000000         5
         6       175       276 540.8100030.0000000         5
         6       175       277 540.8100030.0000000         5
         6       175       280 540.8100030.0000000         5
         6       175       281 540.8100030.0000000         5
         6       175       282 540.8100030.0000000         5
         6       176       275 540.8100030.0000000         5
         6       176       276 540.8100030.0000000         5
         6       176       277 540.8100030.0000000         5
         6       176       281 540.8100030.0000000         5
         6       176       282 540.8100030.0000000         5
         6       177       275 540.8100030.0000000         5
         6       177       276 540.8100030.0000000         5
         6       177       281 540.8100030.0000000         5
         6       177       282 540.8100030.0000000         5
         6       178       275 540.8100030.0000000         5
         6       178       276 540.8100030.0000000         5
         6       178       281 540.8100030.0000000         5
         6       178       282 540.8100030.0000000         5
         6       185        90 209.8600050.0000000         3
         6       186        87 209.8600050.0000000         3
         6       186        88 209.8600050.0000000         3
         6       186        89 209.8600050.0000000         3
         6       186        90 209.8600050.0000000         3
         6       186        91 209.8600050.0000000         3
         6       187        88 209.8600050.0000000         3
         6       187        89 209.8600050.0000000         3
         6       188        88 209.8600050.0000000         3
         6       188        89 209.8600050.0000000         3
         6       188        90 209.8600050.0000000         3
         6       189        87 209.8600050.0000000         3
         6       189        88 209.8600050.0000000         3
         6       189        89 209.8600050.0000000         3
         6       189        90 209.8600050.0000000         3
         6       190        87 209.8600050.0000000         3
         6       190        88 209.8600050.0000000         3
         6       190        89 209.8600050.0000000         3
         6       190        90 209.8600050.0000000         3
         6       191        87 209.8600050.0000000         3
         6       191        88 209.8600050.0000000         3
         6       191        89 209.8600050.0000000         3
         6       191        90 209.8600050.0000000         3
         6       192        87 209.8600050.0000000         3
         6       192        88 209.8600050.0000000         3
         6       192        92 209.8600050.0000000         3
         6       193        88 209.8600050.0000000         3
         6       193        89 209.8600050.0000000         3
         6       193        90 209.8600050.0000000         3
         6       193        91 209.8600050.0000000         3
         6       193        92 209.8600050.0000000         3
         6       193        93 209.8600050.0000000         3
         6       194        88 209.8600050.0000000         3
         6       194        89 209.8600050.0000000         3