# MODFLOW2000 Drain Package
PARAMETER  0  0
     40230        50
     40230         0                      Stress Period 1
         9        12       252    86.800500.000000         2
         9        67       291   342.900500.000000         2
         9        70       292   305.300500.000000         2
         9        71       292   295.900500.000000         2
         9        72       291   359.000500.000000         2
         9        73       291   332.500500.000000         2
         9        74       290   335.400500.000000         2
         9        75       295   296.300500.000000         2
         9        78       260   183.700500.000000         2
         9        79       261   225.100500.000000         2
         9        81       297   312.200500.000000         2
         9        82       297   293.400500.000000         2
         9        83       297   278.400500.000000         2
         9         4       225   166.700500.000000         2
         9         5       223   197.700500.000000         2
         9         5       224   175.400500.000000         2
         9         6       187    23.500500.000000         2
         9         6       222   206.300500.000000         2
         9         6       223   163.600500.000000         2
         9         7       187    32.000500.000000         2
         9         7       221   232.000500.000000         2
         9         7       222   180.700500.000000         2
         9         8       187    39.200500.000000         2
         9         8       220   244.300500.000000         2
         9         8       221   227.700500.000000         2
         9         9       189    44.800500.000000         2
         9         9       219   231.400500.000000         2
         9         9       220   228.400500.000000         2
         9         9       221   177.000500.000000         2
         9        10       188    38.700500.000000         2
         9        10       219   206.500500.000000         2
         9        10       220   174.100500.000000         2
         9        11       188    28.600500.000000         2
         9        11       219   187.100500.000000         2
         9        12       219   186.900500.000000         2
         9        13       218   239.700500.000000         2
         9        13       219   178.500500.000000         2
         9        13       252    85.100500.000000         2
         9        13       253   130.500500.000000         2
         9        14       219   171.500500.000000         2
         9        14       252    77.100500.000000         2
         9        14       253   131.000500.000000         2
         9        15       219   177.700500.000000         2
         9        15       253   105.800500.000000         2
         9        15       254   131.000500.000000         2
         9        16       253    93.300500.000000         2
         9        16       254   127.100500.000000         2
         9        17       253    79.400500.000000         2
         9        17       254   123.000500.000000         2
         9        18       253    75.500500.000000         2
         9        18       254   110.900500.000000         2
         9        19       219   176.100500.000000         2
         9        19       253    71.900500.000000         2
         9        20       219   171.300500.000000         2
         9        20       252    47.100500.000000         2
         9        20       253    59.000500.000000         2
         9        21       252    68.700500.000000         2
         9        21       253    78.000500.000000         2
         9        21       254    94.800500.000000         2
         9        22       252    95.900500.000000         2
         9        22       253   103.200500.000000         2
         9        22       254    91.100500.000000         2
         9        23       252   101.300500.000000         2
         9        23       253   107.000500.000000         2
         9        24       219   179.800500.000000         2
         9        24       252   121.100500.000000         2
         9        25       252   134.800500.000000         2
         9        26       220   176.600500.000000         2
         9        26       252   129.200500.000000         2
         9        27       252   105.600500.000000         2
         9        28       221   186.500500.000000         2
         9        28       252   122.200500.000000         2
         9        29       252   152.300500.000000         2
         9        30       219   181.800500.000000         2
         9        30       220   165.400500.000000         2
         9        30       221   140.700500.000000         2
         9        31       221   123.500500.000000         2
         9        32       199    24.500500.000000         2
         9        32       251   144.200500.000000         2
         9        33       249    83.500500.000000         2
         9        33       250   115.500500.000000         2
         9        34       248    39.400500.000000         2
         9        34       249    92.800500.000000         2
         9        35       198    30.200500.000000         2
         9        35       222   130.300500.000000         2
         9        35       248    54.700500.000000         2
         9        35       249    89.200500.000000         2
         9        36       198    36.200500.000000         2
         9        36       221   143.300500.000000         2
         9        36       222    94.700500.000000         2
         9        36       248    46.300500.000000         2
         9        36       249    77.500500.000000         2
         9        37       198    31.700500.000000         2
         9        37       222   106.500500.000000         2
         9        37       248    37.900500.000000         2
         9        37       249    67.200500.000000         2
         9        37       250    82.600500.000000         2
         9        38       222   122.800500.000000         2
         9        38       249    53.200500.000000         2
         9        38       250    81.300500.000000         2
         9        38       251   104.300500.000000         2
         9        39       222   146.300500.000000         2
         9        39       248    65.500500.000000         2
         9        39       249    80.000500.000000         2
         9        39       250    77.100500.000000         2
         9        39       251   108.500500.000000         2
         9        39       252   119.500500.000000         2
         9        40       222   130.700500.000000         2
         9        40       246    52.900500.000000         2
         9        40       247    83.500500.000000         2
         9        40       248   104.800500.000000         2
         9        40       250    96.300500.000000         2
         9        40       251    94.800500.000000         2
         9        40       252   142.600500.000000         2
         9        41       246    97.500500.000000         2
         9        41       247   128.000500.000000         2
         9        41       251   118.500500.000000         2
         9        41       252   121.000500.000000         2
         9        42       246    84.300500.000000         2
         9        42       247   153.600500.000000         2
         9        42       252   139.700500.000000         2
         9        42       253   159.900500.000000         2
         9        43       200    20.000500.000000         2
         9        43       201    17.200500.000000         2
         9        43       202    18.000500.000000         2
         9        43       246    63.900500.000000         2
         9        43       247   150.500500.000000         2
         9        43       253   162.300500.000000         2
         9        44       199    18.400500.000000         2
         9        44       200    23.400500.000000         2
         9        44       202    37.800500.000000         2
         9        44       247   115.800500.000000         2
         9        45       200    49.800500.000000         2
         9        45       247    95.100500.000000         2
         9        45       248   108.200500.000000         2
         9        45       253   150.000500.000000         2
         9        46       247    31.800500.000000         2
         9        46       248    75.600500.000000         2
         9        46       255   186.300500.000000         2
         9        47       249    72.400500.000000         2
         9        48       199    51.600500.000000         2
         9        48       250    65.500500.000000         2
         9        49       251    79.200500.000000         2
         9        50       252    85.200500.000000         2
         9        51       253    84.700500.000000         2
         9        53       254    71.300500.000000         2
         9        54       255    84.000500.000000         2
         9        55       255    51.300500.000000         2
         9        56       255    32.900500.000000         2
         9        56       256    85.300500.000000         2
         9        57       256    73.400500.000000         2
         9        58       256    36.800500.000000         2
         9        59       257    72.900500.000000         2
         9        60       257    78.900500.000000         2
         9        61       257    85.400500.000000         2
         9        62       257    68.700500.000000         2
         9        63       257    75.900500.000000         2
         9        64       257    65.400500.000000         2
         9        65       257    53.800500.000000         2
         9        66       260   142.900500.000000         2
         9        67       259   154.800500.000000         2
         9        67       260   170.700500.000000         2
         9        67       290   398.300500.000000         2
         9        68       259   161.400500.000000         2
         9        69       259   160.100500.000000         2
         9        69       291   383.700500.000000         2
         9        70       259   161.400500.000000         2
         9        71       259   160.800500.000000         2
         9        71       260   176.700500.000000         2
         9        71       261   200.800500.000000         2
         9        72       259   122.000500.000000         2
         9        72       260   153.400500.000000         2
         9        72       261   198.200500.000000         2
         9        73       258   107.500500.000000         2
         9        73       259   146.900500.000000         2
         9        73       260   171.300500.000000         2
         9        73       261   202.900500.000000         2
         9        74       258   121.300500.000000         2
         9        75       258   119.100500.000000         2
         9        75       259   146.600500.000000         2
         9        75       260   171.200500.000000         2
         9        76       257    89.300500.000000         2
         9        76       259   135.200500.000000         2
         9        76       260   188.300500.000000         2
         9        77       258    98.300500.000000         2
         9        77       259   132.800500.000000         2
         9        77       260   185.700500.000000         2
         9        77       280   306.200500.000000         2
         9        77       281   305.400500.000000         2
         9        78       259   131.900500.000000         2
         9        78       280   311.000500.000000         2
         9        78       296   294.200500.000000         2
         9        79       258    58.100500.000000         2
         9        79       259    96.700500.000000         2
         9        79       260   177.000500.000000         2
         9        79       279   320.100500.000000         2
         9        80       262   267.000500.000000         2
         9        80       263   264.800500.000000         2
         9        80       279   323.900500.000000         2
         9        80       297   322.800500.000000         2
         9        81       262   222.200500.000000         2
         9        81       263   246.300500.000000         2
         9        81       279   318.200500.000000         2
         9        81       280   289.900500.000000         2
         9        82       150    22.200500.000000         2
         9        82       151    49.100500.000000         2
         9        82       152    49.200500.000000         2
         9        82       262   266.300500.000000         2
         9        82       263   243.400500.000000         2
         9        82       278   322.000500.000000         2
         9        82       279   287.900500.000000         2
         9        83       146    29.200500.000000         2
         9        83       147    49.000500.000000         2
         9        83       154    40.800500.000000         2
         9        83       260   238.400500.000000         2
         9        83       261   236.500500.000000         2
         9        83       262   235.200500.000000         2
         9        83       277   309.800500.000000         2
         9        83       278   310.700500.000000         2
         9        83       296   251.500500.000000         2
         9        84       153    31.900500.000000         2
         9        84       260   275.500500.000000         2
         9        84       261   234.000500.000000         2
         9        84       276   301.400500.000000         2
         9        85       145    54.900500.000000         2
         9        85       260   235.900500.000000         2
         9        85       276   327.900500.000000         2
         9        86       259   220.900500.000000         2
         9        86       275   311.600500.000000         2
         9        87       258   102.400500.000000         2
         9        87       275   303.000500.000000         2
         9        88       258   137.400500.000000         2
         9        88       274   292.800500.000000         2
         9        89       258   101.700500.000000         2
         9        89       274   287.900500.000000         2
         9        90       259   148.600500.000000         2
         9        90       273   270.300500.000000         2
         9        91       145    98.000500.000000         2
         9        91       259    89.000500.000000         2
         9        91       260   141.900500.000000         2
         9        91       273   263.300500.000000         2
         9        92       146   143.500500.000000         2
         9        92       260   146.400500.000000         2
         9        92       261   150.300500.000000         2
         9        92       263   182.800500.000000         2
         9        92       264   194.200500.000000         2
         9        92       265   241.700500.000000         2
         9        92       266   240.900500.000000         2
         9        92       267   276.300500.000000         2
         9        92       268   226.700500.000000         2
         9        92       269   232.000500.000000         2
         9        92       270   233.800500.000000         2
         9        93       261   180.800500.000000         2
         9        93       262   148.500500.000000         2
         9        93       263   221.000500.000000         2
         9        93       264   240.900500.000000         2
         9        93       268   301.400500.000000         2
         9        94       261    97.600500.000000         2
         9        94       262   118.400500.000000         2
         9        97       143    58.600500.000000         2
         9        97       146    69.100500.000000         2
         9        97       147    55.000500.000000         2
         9        97       148    79.000500.000000         2
         9        97       274   205.800500.000000         2
         9        98       143    10.000500.000000         2
         9        98       144    12.700500.000000         2
         9        98       145    10.000500.000000         2
         9        98       149    22.300500.000000         2
         9        98       150    48.200500.000000         2
         9        98       151    72.200500.000000         2
         9        99       151    10.000500.000000         2
         9        99       152    27.400500.000000         2
         9        99       153    69.500500.000000         2
         9        99       274   176.700500.000000         2
         9       100       153    26.400500.000000         2
         9       100       274   170.600500.000000         2
         9       101       154    37.900500.000000         2
         9       101       275   176.900500.000000         2
         9       102       154    10.000500.000000         2
         9       102       155    81.500500.000000         2
         9       102       275   168.600500.000000         2
         9       103       155    27.900500.000000         2
         9       103       276   155.100500.000000         2
         9       103       277   175.600500.000000         2
         9       103       278   190.800500.000000         2
         9       104       156    64.900500.000000         2
         9       105       156    29.700500.000000         2
         9       106       157    81.200500.000000         2
         9       107       157    11.300500.000000         2
         9       108       158    48.200500.000000         2
         9       109       159    13.100500.000000         2
         9       109       164   117.900500.000000         2
         9       109       167   102.200500.000000         2
         9       110       164    10.000500.000000         2
         9       110       165    48.000500.000000         2
         9       110       166    55.200500.000000         2
         9       111       166    18.300500.000000         2
         9       111       167    53.500500.000000         2
         9       112       167    57.500500.000000         2
         9       112       168    83.400500.000000         2
         9       112       169    78.300500.000000         2
         9       112       170    78.200500.000000         2
         9       113       170    93.200500.000000         2
         9       113       318   263.600500.000000         2
         9       113       319   267.500500.000000         2
         9       113       321   314.600500.000000         2
         9       113       322   300.800500.000000         2
         9       114       170    19.400500.000000         2
         9       114       171    61.500500.000000         2
         9       114       172   120.300500.000000         2
         9       114       318   328.300500.000000         2
         9       114       323   350.500500.000000         2
         9       115       171    54.600500.000000         2
         9       115       318   342.300500.000000         2
         9       116       172    66.300500.000000         2
         9       116       175    97.000500.000000         2
         9       116       318   349.300500.000000         2
         9       117       173    47.100500.000000         2
         9       117       174    51.200500.000000         2
         9       117       175    51.400500.000000         2
         9       117       176    87.800500.000000         2
         9       117       318   327.000500.000000         2
         9       118       176    52.400500.000000         2
         9       118       318   344.800500.000000         2
         9       119       176    10.000500.000000         2
         9       119       177    62.600500.000000         2
         9       120       179    66.600500.000000         2
         9       120       180    69.100500.000000         2
         9       120       318   348.700500.000000         2
         9       121       179    10.000500.000000         2
         9       121       317   313.900500.000000         2
         9       121       318   341.900500.000000         2
         9       122       180    10.000500.000000         2
         9       122       313   315.000500.000000         2
         9       122       314   312.900500.000000         2
         9       123       180    10.000500.000000         2
         9       123       181    15.200500.000000         2
         9       123       248    76.000500.000000         2
         9       123       317   333.200500.000000         2
         9       123       318   337.100500.000000         2
         9       123       319   342.400500.000000         2
         9       124       181    10.000500.000000         2
         9       124       182    28.200500.000000         2
         9       124       246    10.000500.000000         2
         9       124       247    82.600500.000000         2
         9       124       248   107.500500.000000         2
         9       125       245    10.000500.000000         2
         9       125       246    60.400500.000000         2
         9       125       247   134.700500.000000         2
         9       125       248   130.200500.000000         2
         9       126       182    10.000500.000000         2
         9       126       245    10.000500.000000         2
         9       126       246   115.100500.000000         2
         9       126       247   118.500500.000000         2
         9       127       182    10.000500.000000         2
         9       127       183    10.400500.000000         2
         9       127       245    82.300500.000000         2
         9       127       246    96.800500.000000         2
         9       128       183    10.000500.000000         2
         9       128       245    92.700500.000000         2
         9       129       183    10.000500.000000         2
         9       129       245    89.000500.000000         2
         9       130       183    10.000500.000000         2
         9       130       184    10.000500.000000         2
         9       130       185    64.000500.000000         2
         9       130       245    95.000500.000000         2
         9       131       184    10.000500.000000         2
         9       131       185    52.300500.000000         2
         9       131       245    87.400500.000000         2
         9       132       184    10.000500.000000         2
         9       132       185    10.000500.000000         2
         9       132       247   207.700500.000000         2
         9       133       185    10.000500.000000         2
         9       134       185    10.000500.000000         2
         9       134       186    10.000500.000000         2
         9       134       245    15.600500.000000         2
         9       134       246   146.600500.000000         2
         9       135       186    10.000500.000000         2
         9       135       187    10.000500.000000         2
         9       135       229    10.000500.000000         2
         9       135       245    97.100500.000000         2
         9       135       246   142.800500.000000         2
         9       136       187    10.000500.000000         2
         9       136       188    10.000500.000000         2
         9       136       229    15.300500.000000         2
         9       136       245   111.600500.000000         2
         9       137       188    10.000500.000000         2
         9       137       189    10.000500.000000         2
         9       137       229    25.800500.000000         2
         9       137       230    10.000500.000000         2
         9       137       245    98.700500.000000         2
         9       138       189    10.000500.000000         2
         9       138       230    18.600500.000000         2
         9       139       230    12.300500.000000         2
         9       140       230    10.900500.000000         2
         9       141       230    10.000500.000000         2
         9       142       230    10.000500.000000         2
         9       143       138    22.400500.000000         2
         9       143       139    55.300500.000000         2
         9       143       230    10.000500.000000         2
         9       144       136    31.600500.000000         2
         9       144       137    30.000500.000000         2
         9       144       138    65.800500.000000         2
         9       144       230    10.000500.000000         2
         9       144       231    10.000500.000000         2
         9       145       133    45.400500.000000         2
         9       145       134    42.900500.000000         2
         9       145       135    40.700500.000000         2
         9       145       136    90.900500.000000         2
         9       145       137    37.100500.000000         2
         9       145       138    92.400500.000000         2
         9       145       231    10.000500.000000         2
         9       146       133    46.500500.000000         2
         9       146       134    47.800500.000000         2
         9       146       231    10.000500.000000         2
         9       147       230    10.000500.000000         2
         9       147       231    10.000500.000000         2
         9       148       230    10.000500.000000         2
         9       150       230    10.000500.000000         2
         9       151       230    10.000500.000000         2
         9       152       229    10.000500.000000         2
         9       153       229    10.000500.000000         2
         9       154       229    10.000500.000000         2
         9       156       229    10.000500.000000         2
         9       157       230    10.000500.000000         2
         9       157       231    10.000500.000000         2
         9       167       233    10.000500.000000         2
         9       199        43    10.000500.000000         2
         9       200        43    10.000500.000000         2
         9       202        48    10.000500.000000         2
         9       208        45    10.000500.000000         2
         9       312        38    41.400500.000000         2
         9       313        38    45.000500.000000         2
         9       314        39    50.200500.000000         2
         9       315        39    50.200500.000000         2
         9       324        59   121.700500.000000         2
         9       324        62   112.500500.000000         2
         9       325        59   117.700500.000000         2
         9       325        62   121.200500.000000         2
         9       326        59   116.900500.000000         2
         9       327        59   121.200500.000000         2
         9       328        51   104.600500.000000         2
         9       328        52   105.400500.000000         2
         9       328        59   128.900500.000000         2
         9       328        62   138.100500.000000         2
         9       329        50    91.200500.000000         2
         9       329        62   137.100500.000000         2
         9       336        75   138.800500.000000         2
         9       337        75   158.500500.000000         2
         9       338        75   165.700500.000000         2
         9       339        75   159.000500.000000         2
         9       158       231    10.000500.000000         2
         9       159       231    10.000500.000000         2
         9       160       231    10.000500.000000         2
         9       164       232    10.000500.000000         2
         9       167       231    10.000500.000000         2
         9       167       232    10.000500.000000         2
         9       195        40    10.000500.000000         2
         9       195        43    10.000500.000000         2
         9       198        50    10.000500.000000         2
         9       199        39    10.000500.000000         2
         9       200        49    10.000500.000000         2
         9       201        42    10.000500.000000         2
         9       202        38    10.000500.000000         2
         9       203        48    10.000500.000000         2
         9       204        47    10.000500.000000         2
         9       205        38    10.000500.000000         2
         9       205        39    10.000500.000000         2
         9       205        47    10.000500.000000         2
         9       206        46    10.000500.000000         2
         9       207        46    10.000500.000000         2
         9       209        44    10.000500.000000         2
         9       209        45    10.000500.000000         2
         9       210        44    10.000500.000000         2
         9       211        43    10.000500.000000         2
         9       212        37    10.000500.000000         2
         9       212        38    10.000500.000000         2
         9       212        39    10.000500.000000         2
         9       212        40    10.000500.000000         2
         9       212        41    10.000500.000000         2
         9       213        35    10.000500.000000         2
         9       213        36    10.000500.000000         2
         9       213        37    10.000500.000000         2
         9       213        38    10.000500.000000         2
         9       213        39    10.000500.000000         2
         9       213        40    10.000500.000000         2
         9       213        41    10.000500.000000         2
         9       214        34    10.000500.000000         2
         9       214        35    10.000500.000000         2