# MODFLOW2000 Recharge Package
PARAMETER  0
         3        50
         1         0
        18   1.25000(10e16.8)                   -1     RECHARGE
  7.13666715e-03  6.79079909e-03  7.10146083e-03  9.76673514e-03  8.70545674e-03  9.76673514e-03  9.13824234e-03  9.76673514e-03  9.49486345e-03  6.96134707e-03
  9.49486345e-03  5.46292309e-03  9.31194145e-03  9.49486345e-03  2.29390408e-03  2.30801408e-03  2.30801408e-03  2.28575291e-03  2.27323500e-03  2.30673491e-03
  2.31561600e-03  2.28575291e-03  8.76849331e-03  8.84942990e-03  8.44920054e-03  6.59974897e-03  6.54979516e-03  6.73744315e-03  6.73744315e-03  3.80792189e-03
  8.71258043e-03  5.73420106e-03  6.43609604e-03  2.26560491e-03  2.32703192e-03  2.33623292e-03  2.20527407e-03  6.36776304e-03  2.05677911e-03  6.53627887e-03
  6.49593584e-03  6.53627887e-03  2.05645710e-03  5.98755712e-03  6.14541117e-03  5.86031983e-03  7.87990913e-03  7.73518300e-03  3.44641507e-03  3.44641507e-03
  2.84091290e-03  2.21968000e-03  2.20054598e-03  1.46509102e-03  2.21968000e-03  2.22597690e-03  8.31945240e-03  2.21768697e-03  2.21768697e-03  2.12259591e-03
  8.48132372e-03  3.66317411e-03  2.16423511e-03  6.50780788e-03  6.30356185e-03  6.21835608e-03  6.26831083e-03  6.32454315e-03  6.51931483e-03  2.20401399e-03
  2.22739507e-03  2.20401399e-03  2.10811198e-03  2.03731703e-03  2.08726502e-03  2.17218511e-03  2.19213497e-03  7.97967985e-03  5.01146121e-03  3.42032011e-03
  2.10796809e-03  2.00213492e-03  2.09049508e-03  7.96020497e-03  7.81077612e-03  7.62488600e-03  6.36374392e-03  6.07575290e-03  6.15559379e-03  6.33075414e-03
  6.05420116e-03  7.65776308e-03  8.13294481e-03  2.07074708e-03  7.43554812e-03  7.89573137e-03  2.06951099e-03  0.00000000e+00  0.00000000e+00  0.00000000e+00
  0.00000000e+00  0.00000000e+00  0.00000000e+00  0.00000000e+00  0.00000000e+00  0.00000000e+00  5.79563901e-03  6.11769408e-03  6.09401800e-03  6.09401800e-03
  5.96504612e-03  5.96504612e-03  6.07673498e-03  6.23963494e-03  6.04452100e-03  5.88673493e-03  5.74762607e-03  5.74762607e-03  5.88673493e-03  5.74465794e-03
  6.01518294e-03  5.90132410e-03  6.07769378e-03  6.07769378e-03  5.95479505e-03  6.10634685e-03  5.80351613e-03  5.95479505e-03  5.79559384e-03  5.91543410e-03
  5.79559384e-03  5.79954311e-03  5.11563895e-03  5.80920093e-03  5.99075295e-03  5.81404101e-03  5.82611887e-03  5.68333315e-03  5.68333315e-03  5.54011390e-03
  5.81404101e-03  5.85561618e-03  5.53890411e-03  5.26052481e-03  0.00000000e+00  0.00000000e+00  0.00000000e+00  0.00000000e+00  0.00000000e+00  0.00000000e+00
  0.00000000e+00  0.00000000e+00  0.00000000e+00  0.00000000e+00  0.00000000e+00  0.00000000e+00  0.00000000e+00  0.00000000e+00  0.00000000e+00  0.00000000e+00
  0.00000000e+00  0.00000000e+00  0.00000000e+00  0.00000000e+00  0.00000000e+00  0.00000000e+00  0.00000000e+00  0.00000000e+00  0.00000000e+00  0.00000000e+00
  0.00000000e+00  0.00000000e+00  0.00000000e+00  0.00000000e+00  0.00000000e+00  0.00000000e+00  0.00000000e+00  0.00000000e+00  0.00000000e+00  0.00000000e+00
  0.00000000e+00  0.00000000e+00  0.00000000e+00  0.00000000e+00  0.00000000e+00  0.00000000e+00  5.64922392e-03  6.19047880e-03  5.99589013e-03  6.28906395e-03
  6.09600497e-03  5.99589013e-03  6.14899490e-03  6.14899490e-03  6.14899490e-03  6.35614106e-03  6.35614106e-03  5.48821921e-03  6.14899490e-03  4.12808219e-03
  5.41168917e-03  5.41168917e-03  5.41168917e-03  4.12808219e-03  5.41168917e-03  2.91034207e-03  5.98104997e-03  4.15678089e-03  4.15678089e-03  6.06248807e-03
  6.06248807e-03  4.15678089e-03  4.15678089e-03  5.42876683e-03  4.16066218e-03  5.44340210e-03  4.83831018e-03  5.53068519e-03  4.83831018e-03  5.53068519e-03
  5.56397205e-03  5.29440679e-03  5.29440679e-03  5.17529715e-03  5.25764795e-03  5.86230587e-03  5.25764795e-03  5.22066187e-03  4.94570797e-03  2.02573510e-03
  4.90369881e-03  4.55698604e-03  4.90369881e-03  4.37981682e-03  3.33328801e-03  1.13052095e-03  1.13052095e-03  1.52905204e-03  1.52905204e-03  1.52905204e-03
  4.40463517e-03  8.20152985e-04  1.52205501e-03  1.52205501e-03  1.53247302e-03  4.67059296e-03  1.37776497e-03  2.48879008e-03  3.00349295e-03  3.00349295e-03
  1.44652103e-03  1.44652103e-03  4.81572980e-03  4.71630087e-03  4.22602706e-03  3.23662092e-03  5.37703186e-03  5.37703186e-03  5.34796808e-03  5.34796808e-03
  5.34796808e-03  5.37703186e-03  4.78451978e-03  5.63066220e-03  5.50591294e-03  5.47509082e-03  4.87899594e-03  4.87899594e-03  4.87899594e-03  5.47509082e-03
  5.43876691e-03  5.46979485e-03  5.46979485e-03  3.43506807e-03  4.07002307e-03  5.41673508e-03  5.41673508e-03  4.99890419e-03  4.99890419e-03  4.99890419e-03
  4.99890419e-03  5.59655204e-03  5.59655204e-03  5.62481722e-03  5.95641602e-03  7.31853908e-03  6.01397315e-03  4.36915504e-03  5.95641602e-03  6.09862991e-03
  6.14340184e-03  5.97712304e-03  6.16020616e-03  6.16020616e-03  6.16020616e-03  7.49851577e-03  7.49851577e-03  7.53310509e-03  7.53068505e-03  6.17415505e-03
  6.45029685e-03  6.16410980e-03  6.14723703e-03  6.25732914e-03  6.25732914e-03  5.54876681e-03  5.54876681e-03  5.54876681e-03  6.36063889e-03  6.27862988e-03
  6.41897321e-03  6.32993085e-03  6.36844803e-03  5.21321921e-03  2.91502289e-03  0.00000000e+00  0.00000000e+00  6.60988595e-03  6.60988595e-03  6.60038786e-03
  6.67853886e-03  6.67853886e-03  6.60038786e-03  6.83212280e-03  6.60038786e-03  6.67853886e-03  6.18710089e-03  6.18710089e-03  7.19070807e-03  7.72920111e-03
  7.81219220e-03  7.81219220e-03  4.80337907e-03  8.20924714e-03  8.05018283e-03  6.61061611e-03  6.61061611e-03  0.00000000e+00  0.00000000e+00  6.91936119e-03
  7.07073091e-03  7.15011405e-03  6.77173492e-03  7.07073091e-03  7.17132399e-03  7.17132399e-03  7.17132399e-03  7.17132399e-03  7.93264806e-03  7.64735090e-03
  7.68009201e-03  7.49468012e-03  7.49468012e-03  7.49468012e-03  7.49468012e-03  7.72655290e-03  8.12280830e-03  7.92157464e-03  7.87876733e-03  7.68447481e-03
  7.84899574e-03  7.68447481e-03  7.64917815e-03  7.59374490e-03  7.59374490e-03  2.50353897e-03  2.50353897e-03  2.54712300e-03  2.53426889e-03  2.55449791e-03
  1.02012102e-02  1.00860726e-02  9.55817290e-03  6.51431503e-03  8.04173481e-03  8.04173481e-03  8.82643927e-03  9.33360681e-03  1.09645892e-02  3.04100499e-03
  3.02830990e-03  3.02830990e-03  3.02830990e-03  9.66431480e-03  3.24442890e-03  3.24442890e-03  5.29940613e-03  5.29940613e-03  9.18878987e-03  9.16769356e-03
  9.83116496e-03  9.84073058e-03  9.84073058e-03  9.84073058e-03  1.05134007e-02  1.05134007e-02  1.05134007e-02  1.16669415e-02  1.09464843e-02  1.09464843e-02
  1.09464843e-02  3.53885908e-03  3.53885908e-03  1.15953647e-02  1.22923292e-02  3.65815102e-03  3.68061592e-03  3.68061592e-03  3.68061592e-03  3.68061592e-03
  3.68061592e-03  1.22205932e-02  1.22205932e-02  1.22205932e-02  1.19063696e-02  1.19063696e-02  1.19063696e-02  1.19063696e-02  1.15599781e-02  1.15599781e-02
  1.15599781e-02  1.15599781e-02  1.10540176e-02  1.16330134e-02  1.16330134e-02  1.10054556e-02  1.03862789e-02  1.00216214e-02  1.10306162e-02  1.02044754e-02
  1.10306162e-02  1.03151370e-02  3.38061689e-03
  6.87995413e-03  6.79132389e-03  6.79132389e-03  3.96308210e-03  5.57625620e-03  9.76673514e-03  9.31136869e-03  9.76673514e-03  9.49481688e-03  6.64867600e-03
  3.86116398e-03  6.47376711e-03  9.49481688e-03  8.81888159e-03  2.26800190e-03  2.31344812e-03  2.27379194e-03  2.28687190e-03  2.27379194e-03  2.30534188e-03
  2.25762604e-03  2.19562999e-03  8.64447467e-03  8.85032024e-03  8.44999962e-03  6.60296809e-03  6.55027386e-03  6.60296809e-03  3.78191797e-03  8.59410968e-03
  8.59410968e-03  6.75216923e-03  6.58771722e-03  2.32552504e-03  2.30335607e-03  2.26558000e-03  6.59894990e-03  6.53123297e-03  5.10691805e-03  6.30395021e-03
  2.20888294e-03  2.22550496e-03  2.05003703e-03  3.59719200e-03  1.96364592e-03  8.04536603e-03  7.88187236e-03  8.04536603e-03  3.44525091e-03  2.14323704e-03
  3.52621009e-03  2.19037198e-03  2.19037198e-03  2.21965089e-03  2.20827898e-03  2.23768898e-03  2.16730800e-03  2.23768898e-03  2.10555689e-03  2.12338101e-03
  8.32853932e-03  2.83285393e-03  2.18921900e-03  8.47844779e-03  6.54050196e-03  6.51625590e-03  6.02271687e-03  6.32228283e-03  6.32228283e-03  2.19143392e-03
  2.19560508e-03  2.20073294e-03  2.18349812e-03  2.06934707e-03  2.19367095e-03  2.17116694e-03  2.18055304e-03  2.18055304e-03  2.18167598e-03  8.14773981e-03
  8.14773981e-03  2.10610311e-03  2.10777391e-03  7.81059405e-03  2.10186094e-03  2.09847488e-03  8.27401783e-03  6.07054820e-03  6.36198604e-03  6.32890407e-03
  8.27723742e-03  6.19264785e-03  6.19264785e-03  2.03025411e-03  7.43844686e-03  2.05210107e-03  0.00000000e+00  0.00000000e+00  0.00000000e+00  0.00000000e+00
  0.00000000e+00  0.00000000e+00  0.00000000e+00  0.00000000e+00  0.00000000e+00  0.00000000e+00  0.00000000e+00  6.09575305e-03  6.09575305e-03  6.09575305e-03
  5.82285412e-03  6.20853901e-03  6.20853901e-03  6.24098210e-03  4.18570777e-03  1.09439995e-03  1.09439995e-03  1.09439995e-03  1.86659803e-03  5.88970305e-03
  5.88970305e-03  5.95433777e-03  7.25751184e-03  6.07847003e-03  5.81372110e-03  5.95433777e-03  5.95433777e-03  5.87876700e-03  6.11949805e-03  5.97593607e-03
  5.97593607e-03  5.97593607e-03  5.69849322e-03  5.83931478e-03  5.03150700e-03  5.69849322e-03  5.54294512e-03  6.98961178e-03  5.68500021e-03  5.54294512e-03
  5.68500021e-03  3.64200911e-03  5.71509078e-03  5.44732902e-03  6.65737409e-03  0.00000000e+00  0.00000000e+00  0.00000000e+00  0.00000000e+00  0.00000000e+00
  0.00000000e+00  0.00000000e+00  0.00000000e+00  0.00000000e+00  0.00000000e+00  0.00000000e+00  0.00000000e+00  0.00000000e+00  0.00000000e+00  0.00000000e+00
  0.00000000e+00  0.00000000e+00  0.00000000e+00  0.00000000e+00  0.00000000e+00  0.00000000e+00  0.00000000e+00  0.00000000e+00  0.00000000e+00  0.00000000e+00
  0.00000000e+00  0.00000000e+00  0.00000000e+00  0.00000000e+00  0.00000000e+00  0.00000000e+00  0.00000000e+00  0.00000000e+00  0.00000000e+00  0.00000000e+00
  0.00000000e+00  0.00000000e+00  0.00000000e+00  0.00000000e+00  0.00000000e+00  0.00000000e+00  3.80901806e-03  5.17178094e-03  5.22710010e-03  5.22710010e-03
  5.22710010e-03  5.17178094e-03  5.27636986e-03  5.35376696e-03  4.79796808e-03  4.79796808e-03  4.79796808e-03  4.71424591e-03  4.71424591e-03  4.62127803e-03
  3.52353905e-03  6.22974895e-03  4.28577606e-03  3.80057096e-03  3.80057096e-03  2.91022798e-03  6.26388099e-03  5.45171183e-03  4.15230589e-03  4.15230589e-03
  4.66465810e-03  5.42974891e-03  4.81082220e-03  3.68831097e-03  4.22472600e-03  4.83819610e-03  4.83819610e-03  5.40748797e-03  5.53077599e-03  5.40748797e-03
  0.00000000e+00  5.17442916e-03  5.17442916e-03  4.63945186e-03  6.04273984e-03  5.85703179e-03  4.39885817e-03  5.20901801e-03  3.29812802e-03  4.56258003e-03
  5.06833382e-03  3.97552503e-03  3.29812802e-03  4.38337913e-03  4.38337913e-03  1.40159100e-03  1.40159100e-03  1.53790903e-03  1.53790903e-03  1.53790903e-03
  4.45365300e-03  8.25854018e-04  4.41203220e-03  3.30673507e-03  1.53168500e-03  4.41203220e-03  3.57746589e-03  3.47383600e-03  3.93933803e-03  3.01004597e-03
  1.22377602e-03  1.08970795e-03  3.46253393e-03  4.92369896e-03  4.22632415e-03  4.71381284e-03  5.38280793e-03  5.38280793e-03  5.46214590e-03  5.34194103e-03
  4.77977190e-03  5.60963480e-03  5.34194103e-03  5.63114183e-03  4.92047984e-03  4.92047984e-03  5.47904102e-03  5.60223684e-03  5.47904102e-03  4.90031997e-03
  5.41557092e-03  5.41557092e-03  5.44447498e-03  6.30168989e-03  6.54803682e-03  5.55212284e-03  4.98694088e-03  4.99910908e-03  5.59904100e-03  5.72949788e-03
  4.12698602e-03  4.45413217e-03  5.72949788e-03  5.62043395e-03  5.95301390e-03  5.95301390e-03  6.01123320e-03  5.86885912e-03  5.23956586e-03  5.85988583e-03
  5.85988583e-03  5.91894984e-03  5.91894984e-03  5.91894984e-03  7.35413283e-03  7.35413283e-03  7.35413283e-03  4.49442910e-03  7.64922379e-03  7.64922379e-03
  6.21043378e-03  6.21043378e-03  6.21043378e-03  6.10952079e-03  6.10952079e-03  5.55543415e-03  6.22063922e-03  5.55543415e-03  6.28815079e-03  6.28815079e-03
  6.28815079e-03  6.33276207e-03  6.38162112e-03  5.11477189e-03  2.63872091e-03  2.63872091e-03  0.00000000e+00  0.00000000e+00  6.60860678e-03  6.61431486e-03
  6.67945202e-03  6.61431486e-03  6.67945202e-03  6.61431486e-03  6.61431486e-03  6.82632392e-03  6.78344816e-03  6.50847005e-03  6.67488622e-03  7.53641501e-03
  7.72207789e-03  7.72207789e-03  8.00415501e-03  6.50847005e-03  8.20467994e-03  8.20467994e-03  6.60344679e-03  6.61063893e-03  6.61063893e-03  6.67735096e-03
  6.59607304e-03  7.24059390e-03  5.83703211e-03  5.83703211e-03  7.16374395e-03  7.16374395e-03  7.18194107e-03  7.06920121e-03  7.64767081e-03  7.68365292e-03
  7.92977121e-03  7.64767081e-03  7.64767081e-03  7.68365292e-03  7.58536486e-03  7.77420122e-03  7.81031977e-03  7.81031977e-03  7.81031977e-03  7.81031977e-03
  7.81031977e-03  7.81031977e-03  7.38232816e-03  7.58595904e-03  2.50888104e-03  9.56461206e-03  2.57068500e-03  2.57068500e-03  2.53495411e-03  2.62573105e-03
  1.01986527e-02  9.55830980e-03  8.41723755e-03  1.01206619e-02  8.52456596e-03  8.52456596e-03  1.06451605e-02  1.09620094e-02  3.02045699e-03  3.04093608e-03
  3.02045699e-03  2.99947499e-03  8.04408733e-03  8.64258036e-03  8.64258036e-03  8.64258036e-03  8.64258036e-03  5.19641489e-03  8.69630184e-03  8.69630184e-03
  9.85579938e-03  9.85579938e-03  1.05323289e-02  1.05323289e-02  1.05323289e-02  9.79812723e-03  1.05323289e-02  1.16577633e-02  1.16577633e-02  1.09507767e-02
  1.09507767e-02  1.09507767e-02  1.15853650e-02  3.50673497e-03  3.65885906e-03  3.65885906e-03  3.68312793e-03  3.68312793e-03  3.68312793e-03  3.68312793e-03
  3.59022804e-03  3.71474889e-03  3.71474889e-03  1.19117126e-02  1.19117126e-02  1.19117126e-02  1.19117126e-02  1.19117126e-02  1.23646352e-02  1.15648396e-02
  1.15648396e-02  1.15648396e-02  1.10450229e-02  1.16315754e-02  1.16315754e-02  1.13265980e-02  1.10037671e-02  1.10037671e-02  1.03076482e-02  1.10239945e-02
  1.10239945e-02  1.10239945e-02  3.39716906e-03
  6.88232901e-03  6.79819612e-03  6.79819612e-03  9.54680331e-03  9.30885877e-03  9.30885877e-03  6.58835610e-03  4.00308194e-03  6.65417779e-03  3.85817303e-03
  2.29707803e-03  3.85817303e-03  3.85817303e-03  2.27638101e-03  2.28865305e-03  2.27339007e-03  2.28577596e-03  3.76967993e-03  2.27183593e-03  2.31602695e-03
  2.28356197e-03  2.19848193e-03  7.56493118e-03  3.81714595e-03  8.99527408e-03  9.04502254e-03  6.74034189e-03  6.74034189e-03  3.73867596e-03  9.04502254e-03
  8.59511364e-03  6.43061614e-03  6.59050187e-03  2.21503410e-03  2.28675804e-03  2.33294489e-03  6.49602804e-03  1.38136302e-03  6.30906411e-03  6.28778618e-03
  2.24916893e-03  2.20871903e-03  2.21859594e-03  2.04675598e-03  1.96011201e-03  1.90172403e-03  8.03885888e-03  5.83365280e-03  3.41986306e-03  2.72027403e-03
  2.12369207e-03  7.65634701e-03  2.23564589e-03  2.23055691e-03  2.23960704e-03  2.23368010e-03  2.23368010e-03  2.23368010e-03  2.19441508e-03  8.32347013e-03
  7.95961078e-03  6.22285390e-03  8.28178134e-03  8.28178134e-03  6.36139279e-03  2.24923994e-03  2.22721207e-03  6.51529711e-03  6.51529711e-03  2.17189291e-03
  2.19309796e-03  2.22998206e-03  2.15899991e-03  2.13877903e-03  2.08659400e-03  2.15046806e-03  7.98671227e-03  2.18049111e-03  2.16813898e-03  2.10456597e-03
  3.36372107e-03  2.10811594e-03  2.10357993e-03  7.70052522e-03  1.74421200e-03  4.75440687e-03  1.84859801e-03  1.91433297e-03  6.14458881e-03  6.33143913e-03
  6.19675778e-03  8.27712286e-03  6.19675778e-03  5.87244285e-03  7.50513701e-03  2.01998209e-03  0.00000000e+00  0.00000000e+00  0.00000000e+00  0.00000000e+00
  0.00000000e+00  0.00000000e+00  0.00000000e+00  0.00000000e+00  0.00000000e+00  0.00000000e+00  5.79703180e-03  5.98454289e-03  6.11150684e-03  6.09061681e-03
  6.08312804e-03  6.03013719e-03  6.03013719e-03  6.03013719e-03  6.23655180e-03  6.01714617e-03  5.82917780e-03  5.82917780e-03  1.12842198e-03  1.12842198e-03
  5.89762582e-03  7.64426915e-03  7.55230617e-03  6.01219200e-03  5.74892713e-03  6.04388118e-03  5.87906409e-03  6.04388118e-03  5.73324179e-03  5.97353885e-03
  5.97353885e-03  5.78970322e-03  5.84043423e-03  5.84043423e-03  5.84043423e-03  5.69904083e-03  6.16897317e-03  7.25187222e-03  7.25187222e-03  5.68276178e-03
  5.81068499e-03  5.66915516e-03  5.81068499e-03  5.42990910e-03  5.44413319e-03  0.00000000e+00  0.00000000e+00  0.00000000e+00  0.00000000e+00  0.00000000e+00
  0.00000000e+00  0.00000000e+00  0.00000000e+00  0.00000000e+00  0.00000000e+00  0.00000000e+00  0.00000000e+00  0.00000000e+00  0.00000000e+00  0.00000000e+00
  0.00000000e+00  0.00000000e+00  0.00000000e+00  0.00000000e+00  0.00000000e+00  0.00000000e+00  0.00000000e+00  0.00000000e+00  0.00000000e+00  0.00000000e+00
  0.00000000e+00  0.00000000e+00  0.00000000e+00  0.00000000e+00  0.00000000e+00  0.00000000e+00  0.00000000e+00  0.00000000e+00  0.00000000e+00  0.00000000e+00
  0.00000000e+00  0.00000000e+00  0.00000000e+00  0.00000000e+00  0.00000000e+00  0.00000000e+00  3.80433793e-03  5.16714621e-03  5.29780798e-03  5.22385910e-03
  5.16714621e-03  6.16276311e-03  5.28164394e-03  5.35381306e-03  5.35381306e-03  5.35381306e-03  4.72321920e-03  4.79895016e-03  5.35381306e-03  5.25264814e-03
  3.61614209e-03  3.52586806e-03  1.38241798e-03  1.73912302e-03  1.63749303e-03  3.70278605e-03  6.22255681e-03  5.43650705e-03  6.12723688e-03  6.31881319e-03
  4.70239716e-03  5.48404083e-03  3.57840210e-03  4.70239716e-03  3.59301409e-03  4.83810483e-03  5.40741999e-03  4.83810483e-03  4.83810483e-03  5.40741999e-03
  0.00000000e+00  0.00000000e+00  5.17429179e-03  4.63922415e-03  5.25940582e-03  5.25940582e-03  4.39744303e-03  3.70780798e-03  4.56737401e-03  4.56737401e-03
  3.30335600e-03  1.92962296e-03  3.30335600e-03  3.30335600e-03  1.09387701e-03  1.39770797e-03  1.12847297e-03  4.46221512e-03  4.46221512e-03  3.35888099e-03
  4.46221512e-03  4.46221512e-03  5.13203209e-03  3.31883598e-03  1.54652295e-03  3.31883598e-03  4.41648392e-03  3.64844711e-03  2.94335606e-03  3.00212298e-03
  1.22287695e-03  5.04390383e-03  5.85367577e-03  4.71490901e-03  4.82093589e-03  4.71513718e-03  5.37168887e-03  5.46913221e-03  5.35159791e-03  5.35159791e-03
  5.35159791e-03  5.46913221e-03  4.78264783e-03  5.50700910e-03  4.92550200e-03  4.89851600e-03  5.49719203e-03  5.49719203e-03  5.49719203e-03  5.54707786e-03
  5.41684916e-03  5.41684916e-03  5.54002309e-03  6.43130112e-03  5.86374383e-03  4.98689478e-03  5.55212284e-03  5.00134705e-03  5.60609577e-03  4.15942911e-03
  4.15942911e-03  5.62495412e-03  5.73552493e-03  5.60609577e-03  5.95554803e-03  6.13347022e-03  5.86212287e-03  6.00595912e-03  5.24634682e-03  5.90568502e-03
  5.86328795e-03  6.16406417e-03  5.92079898e-03  5.87652996e-03  7.35086808e-03  6.69632386e-03  0.00000000e+00  0.00000000e+00  7.31184985e-03  7.71082193e-03
  6.20342512e-03  6.20342512e-03  6.20342512e-03  6.25929190e-03  6.25929190e-03  6.25929190e-03  6.37700921e-03  6.57755695e-03  6.57755695e-03  6.27004495e-03
  6.28707698e-03  6.37700921e-03  6.61365315e-03  6.38027396e-03  5.42774005e-03  5.42774005e-03  2.62333290e-03  2.62333290e-03  6.38027396e-03  6.32107304e-03
  6.53041108e-03  6.88264798e-03  6.71463506e-03  6.82216883e-03  6.82216883e-03  6.82216883e-03  6.79529691e-03  6.49792189e-03  6.49792189e-03  6.49792189e-03
  7.72079919e-03  8.00292194e-03  8.00292194e-03  6.49792189e-03  8.20454396e-03  8.27194005e-03  8.20454396e-03  6.61059283e-03  6.69700885e-03  6.67867623e-03
  6.67867623e-03  7.24196387e-03  5.80141600e-03  5.51648391e-03  5.26134716e-03  7.16305990e-03  7.16305990e-03  7.16305990e-03  7.68164406e-03  7.65203219e-03
  7.58333318e-03  7.53543386e-03  7.58333318e-03  7.79794483e-03  7.53543386e-03  7.80422287e-03  8.08977243e-03  7.80422287e-03  7.80422287e-03  7.80422287e-03
  7.80422287e-03  7.80422287e-03  7.59461196e-03  7.59461196e-03  2.50536506e-03  9.33595933e-03  2.50536506e-03  5.64020500e-03  9.55209974e-03  2.62851594e-03
  9.55904089e-03  9.93552525e-03  9.93552525e-03  8.43805913e-03  9.88716912e-03  1.01603884e-02  3.02461209e-03  3.02461209e-03  2.99191801e-03  2.99191801e-03
  2.97367596e-03  2.97367596e-03  2.97367596e-03  8.65125563e-03  8.65125563e-03  8.65125563e-03  8.66429228e-03  5.19258017e-03  8.51120986e-03  8.72883573e-03
  9.86563880e-03  9.78184957e-03  9.78184957e-03  9.78184957e-03  9.96139273e-03  1.01735387e-02  1.05016893e-02  1.01735387e-02  1.09419413e-02  1.09419413e-02
  1.09419413e-02  1.15930140e-02  1.15930140e-02  3.51904100e-03  1.15930140e-02  3.68223805e-03  3.59013700e-03  3.59013700e-03  3.59013700e-03  3.59013700e-03
  3.59013700e-03  3.59013700e-03  3.71461199e-03  3.71461199e-03  3.71461199e-03  3.71461199e-03  1.19079454e-02  1.19079454e-02  1.23567581e-02  1.20031498e-02
  1.15524884e-02  1.13530364e-02  1.15524884e-02  1.15524884e-02  1.13286069e-02  1.13286069e-02  1.00319413e-02  1.09939501e-02  1.09939501e-02  1.09939501e-02
  1.00319413e-02  1.02107311e-02  1.03791328e-02
  6.87547913e-03  6.87547913e-03  3.09732906e-03  2.32762611e-03  2.32762611e-03  9.17468127e-03  2.22943607e-03  6.53207814e-03  9.17468127e-03  2.29545706e-03
  2.29545706e-03  9.20253433e-03  3.81678110e-03  2.27322592e-03  2.27322592e-03  2.26409594e-03  3.82705498e-03  2.28575291e-03  2.19805911e-03  2.28575291e-03
  2.28068302e-03  9.16125625e-03  2.33584503e-03  3.79162095e-03  9.04506911e-03  9.21155233e-03  9.21155233e-03  9.21155233e-03  9.21155233e-03  8.64614081e-03
  9.04399622e-03  6.74463483e-03  2.33121007e-03  2.32657511e-03  6.20557088e-03  2.20009591e-03  2.08690390e-03  2.03189999e-03  6.31664414e-03  6.31664414e-03
  2.24920292e-03  2.20709108e-03  2.20709108e-03  2.25579203e-03  2.10513198e-03  8.09515920e-03  8.09515920e-03  3.49000003e-03  3.38532007e-03  3.38532007e-03
  1.87565503e-03  2.23366707e-03  3.68550210e-03  2.24082894e-03  2.23366707e-03  2.19249795e-03  2.23366707e-03  2.23366707e-03  2.21195212e-03  8.32397304e-03
  3.66015988e-03  2.21695891e-03  8.25723726e-03  8.25723726e-03  6.55534305e-03  2.22117105e-03  6.51472621e-03  6.51472621e-03  6.51472621e-03  2.23977910e-03
  1.96252507e-03  2.20367103e-03  2.18819198e-03  2.16140901e-03  2.15634890e-03  7.53278518e-03  2.15395400e-03  2.15395400e-03  2.15634890e-03  2.08795699e-03
  7.25342520e-03  2.10687192e-03  7.70111894e-03  5.92762511e-03  5.92762511e-03  6.10981695e-03  5.67091303e-03  5.75812813e-03  2.18330394e-03  7.65429204e-03
  5.90698607e-03  6.06075395e-03  5.90698607e-03  5.90698607e-03  2.04228307e-03  0.00000000e+00  0.00000000e+00  0.00000000e+00  0.00000000e+00  0.00000000e+00
  0.00000000e+00  0.00000000e+00  0.00000000e+00  0.00000000e+00  0.00000000e+00  0.00000000e+00  5.79317287e-03  5.79317287e-03  6.11732900e-03  6.09552488e-03
  5.96226007e-03  6.09552488e-03  6.08328823e-03  6.08328823e-03  6.21047989e-03  5.82865300e-03  6.01353915e-03  5.82865300e-03  5.82865300e-03  5.97438402e-03
  6.03488600e-03  5.88623295e-03  7.54684908e-03  5.81479399e-03  5.81479399e-03  4.16321913e-03  5.70974918e-03  5.70974918e-03  5.70974918e-03  5.97449811e-03
  5.99221420e-03  5.83949778e-03  5.83949778e-03  5.81390411e-03  5.81390411e-03  5.79209998e-03  5.80965821e-03  6.98653003e-03  5.68559393e-03  5.82194002e-03
  5.84922405e-03  5.66244312e-03  5.80965821e-03  5.48395002e-03  5.45289880e-03  0.00000000e+00  0.00000000e+00  0.00000000e+00  0.00000000e+00  0.00000000e+00
  0.00000000e+00  0.00000000e+00  0.00000000e+00  0.00000000e+00  0.00000000e+00  0.00000000e+00  0.00000000e+00  0.00000000e+00  0.00000000e+00  0.00000000e+00
  0.00000000e+00  0.00000000e+00  0.00000000e+00  0.00000000e+00  0.00000000e+00  0.00000000e+00  0.00000000e+00  0.00000000e+00  0.00000000e+00  0.00000000e+00
  0.00000000e+00  0.00000000e+00  0.00000000e+00  0.00000000e+00  0.00000000e+00  0.00000000e+00  0.00000000e+00  0.00000000e+00  0.00000000e+00  0.00000000e+00
  0.00000000e+00  0.00000000e+00  0.00000000e+00  0.00000000e+00  0.00000000e+00  0.00000000e+00  5.16483979e-03  5.16888080e-03  5.43132378e-03  5.16888080e-03
  5.16888080e-03  6.16547978e-03  6.16547978e-03  5.35372179e-03  4.79780789e-03  5.35372179e-03  5.27874380e-03  5.35372179e-03  5.35372179e-03  5.35372179e-03
  4.71299095e-03  5.54173486e-03  6.35648379e-03  6.24958891e-03  6.40997710e-03  6.44787680e-03  6.17657509e-03  6.31721411e-03  6.31721411e-03  6.31721411e-03
  3.68655310e-03  4.81054792e-03  4.69742017e-03  4.81054792e-03  5.36662107e-03  5.86054800e-03  5.52424602e-03  0.00000000e+00  0.00000000e+00  6.16557105e-03
  0.00000000e+00  5.17424708e-03  5.29333297e-03  4.63926885e-03  5.20449784e-03  5.21486299e-03  3.01406393e-03  3.69502301e-03  4.70899604e-03  4.36465815e-03
  3.30730597e-03  2.55333306e-03  2.56479392e-03  3.35173495e-03  1.38789695e-03  1.12676003e-03  1.12676003e-03  3.34230601e-03  3.34230601e-03  4.98344703e-03
  5.14769414e-03  4.46436089e-03  3.31091299e-03  3.31091299e-03  3.31091299e-03  3.31091299e-03  3.31091299e-03  3.66246607e-03  5.20536490e-03  1.22456602e-03
  3.73725989e-03  4.71516000e-03  4.92216880e-03  5.84047986e-03  4.71516000e-03  4.82091308e-03  5.34872198e-03  5.34872198e-03  5.34872198e-03  5.34872198e-03
  4.78853891e-03  4.87479521e-03  4.87479521e-03  5.52203180e-03  5.52203180e-03  5.52203180e-03  5.49404090e-03  4.89926897e-03  5.49404090e-03  5.61926886e-03
  5.53895021e-03  5.41872112e-03  5.44153014e-03  5.45616494e-03  6.54673483e-03  3.24164401e-03  5.41872112e-03  5.41872112e-03  5.00189513e-03  4.15954320e-03
  5.60079888e-03  5.60079888e-03  5.00189513e-03  5.73173491e-03  5.60079888e-03  6.13673497e-03  5.85945183e-03  7.21842423e-03  5.85945183e-03  6.02586707e-03
  6.02586707e-03  5.97331021e-03  6.11077622e-03  5.88116422e-03  6.33043377e-03  0.00000000e+00  0.00000000e+00  0.00000000e+00  0.00000000e+00  6.63929200e-03
  6.19659806e-03  6.19659806e-03  6.19659806e-03  6.20157598e-03  6.10954314e-03  6.15723804e-03  6.43392699e-03  6.58429181e-03  6.28678082e-03  6.32920116e-03
  6.32920116e-03  6.28422387e-03  6.58246595e-03  6.37248904e-03  6.37248904e-03  5.22703212e-03  2.59079901e-03  2.62210099e-03  6.37143804e-03  6.42365310e-03
  6.88310480e-03  6.88310480e-03  6.83032023e-03  6.79123309e-03  6.83032023e-03  6.79123309e-03  6.83032023e-03  6.64431509e-03  6.64431509e-03  6.64431509e-03
  6.49280800e-03  7.73095898e-03  7.90470280e-03  7.90470280e-03  8.17360729e-03  8.41073133e-03  7.74799101e-03  8.21061712e-03  8.21061712e-03  6.67700917e-03
  6.94778515e-03  7.24299112e-03  5.28244302e-03  0.00000000e+00  0.00000000e+00  5.26913209e-03  7.21321907e-03  7.20303599e-03  7.58552598e-03  7.58552598e-03
  7.53984088e-03  7.53984088e-03  7.58552598e-03  7.53984088e-03  7.53984088e-03  7.86913279e-03  7.67479511e-03  7.80472578e-03  7.80472578e-03  7.80472578e-03
  7.80472578e-03  7.80472578e-03  7.59123312e-03  7.59123312e-03  7.59123312e-03  9.32961237e-03  2.54643802e-03  2.54643802e-03  2.50611897e-03  9.38767102e-03
  1.00890407e-02  9.93776321e-03  8.41461215e-03  8.52454361e-03  7.70842517e-03  7.70842517e-03  2.75591295e-03  2.97785411e-03  3.00006801e-03  3.00006801e-03
  3.00006801e-03  3.02515994e-03  3.02515994e-03  3.02515994e-03  8.70408677e-03  8.70408677e-03  8.57125502e-03  5.21100406e-03  8.65447521e-03  8.77858419e-03
  9.00178123e-03  1.04846340e-02  9.78221465e-03  1.04846340e-02  9.95205529e-03  9.95205529e-03  1.01797953e-02  1.01797953e-02  1.11087896e-02  1.09479222e-02
  1.15917129e-02  1.15917129e-02  3.38465697e-03  1.08534927e-02  1.08534927e-02  1.18012102e-02  3.59036494e-03  3.59036494e-03  1.18012102e-02  3.59036494e-03
  3.59036494e-03  3.59036494e-03  3.71463504e-03  3.71463504e-03  3.71463504e-03  3.71463504e-03  1.19074434e-02  1.19074434e-02  1.23616206e-02  1.20076723e-02
  1.15552284e-02  1.20076723e-02  1.10158455e-02  1.20076723e-02  1.20076723e-02  1.13054337e-02  1.03561869e-02  1.00455480e-02  1.00455480e-02  1.10140191e-02
  1.05552059e-02  1.04214614e-02  1.04214614e-02
  6.86817290e-03  6.87194103e-03  6.71011396e-03  2.29486311e-03  2.29486311e-03  2.34408700e-03  2.34408700e-03  2.30970304e-03  9.44458880e-03  2.23909994e-03
  2.23909994e-03  8.60075280e-03  9.19773895e-03  3.85488593e-03  2.17525288e-03  2.30557099e-03  3.66830989e-03  3.82287707e-03  2.27182405e-03  2.28344789e-03
  3.83244292e-03  9.16116405e-03  6.22748816e-03  8.76447465e-03  9.21157468e-03  8.76447465e-03  9.21157468e-03  8.64616502e-03  9.21157468e-03  9.21157468e-03
  6.64511416e-03  2.26258393e-03  2.26258393e-03  2.23693601e-03  6.16196403e-03  1.42341305e-03  2.07804609e-03  2.04724912e-03  6.31863018e-03  2.25425605e-03
  2.13358691e-03  2.23850692e-03  2.24759802e-03  2.17471202e-03  2.13165511e-03  8.10025074e-03  3.41678108e-03  6.03732886e-03  3.41678108e-03  3.93089093e-03
  3.41678108e-03  2.11713207e-03  8.55000038e-03  2.23397301e-03  2.23500910e-03  2.18758010e-03  2.23500910e-03  2.22096592e-03  2.20696605e-03  2.22835806e-03
  6.39331108e-03  3.65972589e-03  6.31552516e-03  6.27531996e-03  6.55456586e-03  8.50538816e-03  6.51248917e-03  6.51248917e-03  6.31522806e-03  1.91407104e-03
  2.19452102e-03  2.18930794e-03  2.20233994e-03  2.18941993e-03  7.98200909e-03  8.37420113e-03  2.18941993e-03  2.13692896e-03  2.15392001e-03  2.16520089e-03
  7.69808283e-03  2.10580393e-03  4.74680401e-03  8.14767089e-03  2.08344101e-03  2.08344101e-03  2.14520097e-03  5.75410901e-03  7.46563915e-03  0.00000000e+00
  7.59052485e-03  6.06550183e-03  5.76867582e-03  7.44447485e-03  9.33050003e-04  0.00000000e+00  0.00000000e+00  0.00000000e+00  0.00000000e+00  0.00000000e+00
  0.00000000e+00  0.00000000e+00  0.00000000e+00  0.00000000e+00  0.00000000e+00  0.00000000e+00  0.00000000e+00  5.79209998e-03  5.95082203e-03  6.09267084e-03
  6.09267084e-03  6.09267084e-03  6.09267084e-03  6.09267084e-03  6.09267084e-03  6.03363011e-03  6.03363011e-03  6.03566179e-03  5.90956584e-03  5.98191796e-03