# SFR Package for MODFLOW2000
OPTIONS
REACHINPUT
END
 11480  1024  0  0  1.283904e+005  1.000000e-004  50  -50 1 10 1 30
  6  287  217  1  1  425.525530  812.786597  0.002318  1.000000          5.0341700E-01
  6  288  217  1  2  447.585118  800.381821  0.000100  1.000000          5.0341700E-01
  6  288  218  1  3  98.665409  787.977044  0.033875  1.000000          5.0341700E-01
  6  289  218  1  4  508.851636  775.572268  0.080056  1.000000          5.0341700E-01
  6  290  218  1  5  502.175393  763.167491  0.034873  1.000000          5.0341700E-01
  6  291  218  1  6  527.139077  750.762715  0.029433  1.000000          5.0341700E-01
  6  292  218  1  7  417.293131  738.357938  0.042075  1.000000          5.0341700E-01
  6  292  219  1  8  547.862834  725.953162  0.056577  1.000000          5.0341700E-01
  6  292  219  2  1  32.988252  725.869762  0.306330  1.000000          5.0341700E-01
  6  292  220  2  2  35.924233  721.834484  0.156823  1.000000          5.0341700E-01
  6  293  220  2  3  574.004359  719.603466  0.003777  1.000000          5.0341700E-01
  6  294  220  2  4  429.124650  719.483470  0.000335  1.000000          5.0341700E-01
  6  294  221  2  5  235.964227  719.340465  0.001043  1.000000          5.0341700E-01
  6  295  221  2  6  550.227542  718.689464  0.001946  1.000000          5.0341700E-01
  6  296  221  2  7  564.667996  717.442516  0.006106  1.000000          5.0341700E-01
  6  297  221  2  8  2.368650  714.614513  0.000100  1.000000          5.0341700E-01
  6  297  222  2  9  537.524575  717.104734  0.000100  1.000000          5.0341700E-01
  6  298  222  2  10  44.802908  716.009105  0.022427  1.000000          5.0341700E-01
  6  298  222  3  1  306.726889  716.009105  0.033294  1.000000          5.0341700E-01
  6  298  221  3  2  83.128803  711.782482  0.000100  1.000000          5.0341700E-01
  6  298  222  3  3  100.565064  709.603405  0.000100  1.000000          5.0341700E-01
  6  299  222  3  4  511.850641  706.400554  0.026533  1.000000          5.0341700E-01
  6  300  222  3  5  77.030966  702.282482  0.022038  1.000000          5.0341700E-01
  6  300  222  4  1  423.862683  702.136034  0.005777  1.000000          5.0341700E-01
  6  301  222  4  2  501.110035  699.464037  0.003427  1.000000          5.0341700E-01
  6  302  222  4  3  500.993455  698.925035  0.001297  1.000000          5.0341700E-01
  6  303  222  4  4  501.723857  698.164049  0.001297  1.000000          5.0341700E-01
  6  304  222  4  5  501.300866  697.624071  0.001784  1.000000          5.0341700E-01
  6  305  222  4  6  503.687661  696.372057  0.002515  1.000000          5.0341700E-01
  6  306  222  4  7  520.734570  695.072069  0.001864  1.000000          5.0341700E-01
  6  307  222  4  8  563.661371  694.427049  0.000100  1.000000          5.0341700E-01
  6  308  222  4  9  582.009692  695.704027  0.000100  1.000000          5.0341700E-01
  6  308  223  4  10  5.989679  695.344100  0.008192  1.000000          5.0341700E-01
  6  309  223  4  11  300.157349  693.460069  0.007215  1.000000          5.0341700E-01
  6  309  222  4  12  251.768295  693.631398  0.000100  1.000000          5.0341700E-01
  6  310  222  4  13  347.708139  692.775048  0.001892  1.000000          5.0341700E-01
  6  310  223  4  14  188.234317  691.918697  0.000100  1.000000          5.0341700E-01
  6  310  222  4  15  19.106381  691.062346  0.000100  1.000000          5.0341700E-01
  6  311  222  4  16  41.860667  690.205995  0.000100  1.000000          5.0341700E-01
  6  311  223  4  17  478.302299  689.349645  0.008020  1.000000          5.0341700E-01
  6  312  223  4  18  512.576228  688.493294  0.002864  1.000000          5.0341700E-01
  6  313  223  4  19  513.849499  687.636943  0.006224  1.000000          5.0341700E-01
  6  314  223  4  20  621.353023  685.318041  0.007341  1.000000          5.0341700E-01
  6  315  223  4  21  28.690894  683.371019  0.005990  1.000000          5.0341700E-01
  6  290  232  5  1  359.472630  743.200782  0.001965  1.000000          5.0341700E-01
  6  291  232  5  2  505.591814  742.655067  0.001735  1.000000          5.0341700E-01
  6  292  232  5  3  510.503721  742.109351  0.001450  1.000000          5.0341700E-01
  6  293  232  5  4  504.686199  741.433875  0.000100  1.000000          5.0341700E-01
  6  294  232  5  5  369.189543  741.017920  0.000100  1.000000          5.0341700E-01
  6  294  232  6  1  159.764979  741.017920  0.018299  1.000000          5.0341700E-01
  6  295  232  6  2  311.089793  737.645588  0.006275  1.000000          5.0341700E-01
  6  295  233  6  3  296.970962  734.273256  0.009959  1.000000          5.0341700E-01
  6  296  233  6  4  534.907637  730.054908  0.016746  1.000000          5.0341700E-01
  6  297  233  6  5  554.813039  725.791907  0.006994  1.000000          5.0341700E-01
  6  298  233  6  6  504.323219  722.527869  0.006247  1.000000          5.0341700E-01
  6  299  233  6  7  207.792028  720.273902  0.010125  1.000000          5.0341700E-01
  6  299  232  6  8  302.989815  716.718909  0.013920  1.000000          5.0341700E-01
  6  299  232  7  1  136.464494  716.718909  0.000100  1.000000          5.0341700E-01
  6  298  232  7  2  95.820274  716.683578  0.000100  1.000000          5.0341700E-01
  6  298  231  7  3  564.291317  713.928870  0.009968  1.000000          5.0341700E-01
  6  298  230  7  4  530.936119  714.213904  0.002412  1.000000          5.0341700E-01
  6  298  229  7  5  573.385273  711.262915  0.004151  1.000000          5.0341700E-01
  6  298  228  7  6  334.358324  709.920874  0.000417  1.000000          5.0341700E-01
  6  299  228  7  7  214.668619  710.503882  0.000100  1.000000          5.0341700E-01
  6  299  227  7  8  538.685487  709.746863  0.000890  1.000000          5.0341700E-01
  6  299  226  7  9  467.665622  709.862891  0.000365  1.000000          5.0341700E-01
  6  300  226  7  10  198.440074  709.542884  0.001970  1.000000          5.0341700E-01
  6  300  225  7  11  335.410310  708.747901  0.001722  1.000000          5.0341700E-01
  6  301  225  7  12  253.157511  708.610877  0.001665  1.000000          5.0341700E-01
  6  301  226  7  13  500.125953  707.531897  0.003104  1.000000          5.0341700E-01
  6  302  226  7  14  575.415664  705.733863  0.003316  1.000000          5.0341700E-01
  6  303  226  7  15  517.949121  703.935889  0.000100  1.000000          5.0341700E-01
  6  303  227  7  16  70.066215  705.035865  0.001941  1.000000          5.0341700E-01
  6  304  227  7  17  626.560991  702.380896  0.006395  1.000000          5.0341700E-01
  6  305  227  7  18  111.176245  700.474890  0.003027  1.000000          5.0341700E-01
  6  305  226  7  19  581.763948  700.167884  0.001617  1.000000          5.0341700E-01
  6  306  226  7  20  506.536654  698.889869  0.001701  1.000000          5.0341700E-01
  6  307  226  7  21  505.282443  698.356910  0.000124  1.000000          5.0341700E-01
  6  308  226  7  22  503.548960  698.762915  0.000100  1.000000          5.0341700E-01
  6  309  226  7  23  544.138344  699.110877  0.000100  1.000000          5.0341700E-01
  6  309  225  7  24  33.168093  699.010901  0.002429  1.000000          5.0341700E-01
  6  310  225  7  25  380.396657  698.077918  0.002198  1.000000          5.0341700E-01
  6  310  226  7  26  171.146988  698.109900  0.002054  1.000000          5.0341700E-01
  6  311  226  7  27  544.198278  696.598914  0.003223  1.000000          5.0341700E-01
  6  312  226  7  28  520.751925  695.415870  0.000960  1.000000          5.0341700E-01
  6  313  226  7  29  708.246199  695.601905  0.000432  1.000000          5.0341700E-01
  6  313  225  7  30  128.285258  695.113868  0.001167  1.000000          5.0341700E-01
  6  313  225  8  1  89.308769  695.113868  0.018801  1.000000          5.0341700E-01
  6  314  225  8  2  369.280437  690.802894  0.012322  1.000000          5.0341700E-01
  6  314  224  8  3  551.260621  688.113868  0.006071  1.000000          5.0341700E-01
  6  314  223  8  4  263.464453  685.547889  0.007302  1.000000          5.0341700E-01
  6  315  223  8  5  205.455494  683.600867  0.008304  1.000000          5.0341700E-01
  6  315  223  9  1  485.447234  683.371019  0.001116  1.000000          5.0341700E-01
  6  316  223  9  2  138.063206  683.023058  0.004709  1.000000          5.0341700E-01
  6  316  222  9  3  520.599735  680.289049  0.006803  1.000000          5.0341700E-01
  6  317  222  9  4  539.384157  677.478014  0.005161  1.000000          5.0341700E-01
  6  318  222  9  5  125.013819  675.811022  0.006737  1.000000          5.0341700E-01
  6  318  221  9  6  563.432672  672.900072  0.007393  1.000000          5.0341700E-01
  6  319  221  9  7  525.295015  669.454027  0.005636  1.000000          5.0341700E-01
  6  320  221  9  8  502.341520  666.915025  0.005812  1.000000          5.0341700E-01
  6  321  221  9  9  768.610462  662.668016  0.000100  1.000000          5.0341700E-01
  6  322  221  9  10  13.373191  665.975023  0.004669  1.000000          5.0341700E-01
  6  322  220  9  11  661.908528  659.966051  0.008736  1.000000          5.0341700E-01
  5  322  219  9  12  207.294585  660.107042  0.004152  1.000000          5.0341700E-01
  5  323  219  9  13  475.137043  657.163072  0.004347  1.000000          5.0341700E-01
  5  323  218  9  14  410.877782  657.134020  0.004277  1.000000          5.0341700E-01
  5  324  218  9  15  296.687911  654.131029  0.007767  1.000000          5.0341700E-01
  5  324  217  9  16  551.882769  651.142015  0.000100  1.000000          5.0341700E-01
  5  324  216  9  17  370.933895  653.460793  0.015077  1.000000          5.0341700E-01
  5  325  216  9  18  153.111415  647.397020  0.024703  1.000000          5.0341700E-01
  5  325  215  9  19  576.044986  647.978014  0.000100  1.000000          5.0341700E-01
  5  325  214  9  20  478.562671  647.373896  0.005006  1.000000          5.0341700E-01
  5  326  214  9  21  113.499808  645.344931  0.020269  1.000000          5.0341700E-01
  5  326  213  9  22  207.792399  643.315965  0.018102  1.000000          5.0341700E-01
  6  325  228  10  1  106.314987  674.037067  0.008896  1.000000           5.0341700E-01
  6  326  228  10  2  595.105097  670.917072  0.001711  1.000000           5.0341700E-01
  6  327  228  10  3  305.456350  673.382037  0.001369  1.000000           5.0341700E-01
  6  327  227  10  4  562.434808  669.818073  0.004362  1.000000           5.0341700E-01
  6  327  226  10  5  536.695177  669.537067  0.003888  1.000000           5.0341700E-01
  6  327  225  10  6  597.553775  665.417072  0.007677  1.000000           5.0341700E-01
  6  327  224  10  7  316.161157  661.721088  0.000444  1.000000           5.0341700E-01
  5  326  224  10  8  252.524597  663.769061  0.002946  1.000000           5.0341700E-01
  5  326  223  10  9  283.560915  660.259052  0.010902  1.000000           5.0341700E-01
  5  327  223  10  10  98.606146  658.595050  0.000100  1.000000           5.0341700E-01
  5  326  223  10  11  86.387695  660.259052  0.002273  1.000000           5.0341700E-01
  5  327  223  10  12  61.292511  658.595050  0.015183  1.000000           5.0341700E-01
  5  327  222  10  13  572.835798  656.112079  0.005143  1.000000           5.0341700E-01
  5  327  221  10  14  525.726913  654.764057  0.003260  1.000000           5.0341700E-01
  5  327  220  10  15  504.285407  652.670062  0.002171  1.000000           5.0341700E-01
  5  327  219  10  16  251.897966  652.570087  0.000100  1.000000           5.0341700E-01
  5  326  219  10  17  302.981951  652.716083  0.000041  1.000000           5.0341700E-01
  5  327  219  10  18  179.005090  652.570087  0.000100  1.000000           5.0341700E-01
  6  327  218  10  19  556.535330  651.738757  0.000100  1.000000           5.0341700E-01
  6  327  217  10  20  357.128051  650.321628  0.010694  1.000000           5.0341700E-01
  5  326  217  10  21  200.593427  648.904498  0.008945  1.000000           5.0341700E-01
  5  326  216  10  22  539.514234  647.487369  0.006280  1.000000           5.0341700E-01
  5  326  215  10  23  556.313909  644.277057  0.000504  1.000000           5.0341700E-01
  5  326  214  10  24  538.108312  644.653110  0.000777  1.000000           5.0341700E-01
  5  326  213  10  25  188.367606  643.235980  0.008006  1.000000           5.0341700E-01
  5  326  213  11  1  343.553132  643.086691  0.010182  1.000000           5.0341700E-01
  5  326  212  11  2  502.859574  640.441794  0.006432  1.000000           5.0341700E-01
  5  326  211  11  3  520.172925  639.069785  0.003593  1.000000           5.0341700E-01
  6  326  210  11  4  78.546346  637.721762  0.005882  1.000000           5.0341700E-01
  5  327  210  11  5  15.651122  638.262778  0.007261  1.000000           5.0341700E-01
  6  324  209  12  1  193.949148  638.975314  0.000100  1.000000           5.0341700E-01
  6  325  209  12  2  199.483614  640.826327  0.000100  1.000000           5.0341700E-01
  6  325  210  12  3  370.078010  639.499301  0.003752  1.000000           5.0341700E-01
  6  326  210  12  4  573.590437  638.157321  0.002005  1.000000           5.0341700E-01
  5  327  210  12  5  13.424698  638.698337  0.001165  1.000000           5.0341700E-01
  5  327  210  13  1  373.105696  638.165920  0.000100  1.000000           5.0341700E-01
  5  327  211  13  2  148.787670  638.740810  0.001510  1.000000           5.0341700E-01
  5  328  211  13  3  209.110088  637.226894  0.007868  1.000000           5.0341700E-01
  5  328  210  13  4  359.428448  635.317897  0.007138  1.000000           5.0341700E-01
  5  329  210  13  5  281.140454  633.107936  0.007468  1.000000           5.0341700E-01
  5  329  210  14  1  251.600109  633.107936  0.000100  1.000000           5.0341700E-01
  6  329  209  14  2  83.357104  635.338295  0.000100  1.000000           5.0341700E-01
  6  330  209  14  3  557.547494  634.048915  0.005406  1.000000           5.0341700E-01
  6  331  209  14  4  529.542385  632.064907  0.003526  1.000000           5.0341700E-01
  5  332  209  14  5  77.674365  631.031887  0.000100  1.000000           5.0341700E-01
  6  332  208  14  6  62.176712  633.127895  0.000100  1.000000           5.0341700E-01
  6  332  208  15  1  388.451096  633.127895  0.003309  1.000000           5.0341700E-01
  5  333  208  15  2  493.414784  631.668910  0.001829  1.000000           5.0341700E-01
  5  333  207  15  3  91.919621  631.566921  0.000348  1.000000           5.0341700E-01
  5  331  214  16  1  283.502393  649.760901  0.001403  1.000000           5.0341700E-01
  5  332  214  16  2  517.382378  649.198890  0.000100  1.000000           5.0341700E-01
  5  333  214  16  3  343.165035  651.436866  0.006205  1.000000           5.0341700E-01
  5  333  213  16  4  115.726083  647.395911  0.017612  1.000000           5.0341700E-01
  5  333  213  17  1  460.741164  647.395911  0.000371  1.000000           5.0341700E-01
  5  333  212  17  2  504.028724  647.216895  0.003319  1.000000           5.0341700E-01
  5  333  211  17  3  502.779526  644.061866  0.008822  1.000000           5.0341700E-01
  5  333  210  17  4  500.124243  638.356910  0.008614  1.000000           5.0341700E-01
  5  333  209  17  5  500.401487  635.429908  0.006121  1.000000           5.0341700E-01
  5  333  208  17  6  502.504992  632.224890  0.003373  1.000000           5.0341700E-01
  5  333  207  17  7  74.300133  632.122901  0.000354  1.000000           5.0341700E-01
  5  333  207  18  1  281.192659  631.566921  0.000100  1.000000           5.0341700E-01
  5  334  207  18  2  191.625990  631.784056  0.000100  1.000000           5.0341700E-01
  5  334  206  18  3  535.238154  631.057405  0.053077  1.000000           5.0341700E-01
  5  334  205  18  4  551.289870  630.203884  0.000066  1.000000           5.0341700E-01
  5  335  205  18  5  12.592499  629.604103  0.001568  1.000000           5.0341700E-01
  5  335  204  18  6  641.538154  628.341884  0.003868  1.000000           5.0341700E-01
  6  335  203  18  7  135.870861  628.150800  0.000100  1.000000           5.0341700E-01
  5  336  203  18  8  530.228442  627.424149  0.008591  1.000000           5.0341700E-01
  6  337  203  18  9  553.048767  626.697498  0.000100  1.000000           5.0341700E-01
  6  338  203  18  10  124.646543  625.970847  0.000100  1.000000           5.0341700E-01
  5  338  202  18  11  436.545867  625.249904  0.003207  1.000000           5.0341700E-01
  6  339  202  18  12  438.669613  624.517545  0.000100  1.000000           5.0341700E-01
  5  339  201  18  13  220.718793  623.790894  0.000100  1.000000           5.0341700E-01
  5  340  201  18  14  572.627149  623.064243  0.003810  1.000000           5.0341700E-01
  5  340  200  18  15  127.041848  622.337592  0.002084  1.000000           5.0341700E-01
  5  341  200  18  16  479.195830  621.610941  0.007270  1.000000           5.0341700E-01
  5  341  199  18  17  528.983217  620.884289  0.000100  1.000000           5.0341700E-01
  5  342  199  18  18  44.954062  620.157638  0.001332  1.000000           5.0341700E-01
  5  342  198  18  19  541.279435  619.430987  0.007243  1.000000           5.0341700E-01
  5  342  197  18  20  505.898136  618.704336  0.000545  1.000000           5.0341700E-01
  5  342  196  18  21  399.380879  617.994899  0.001371  1.000000           5.0341700E-01
  6  341  196  18  22  154.964674  617.251034  0.005211  1.000000           5.0341700E-01
  5  341  195  18  23  627.539491  616.524383  0.000100  1.000000           5.0341700E-01
  5  341  194  18  24  96.506078  615.797732  0.003495  1.000000           5.0341700E-01
  5  340  194  18  25  526.083666  615.071081  0.006738  1.000000           5.0341700E-01
  6  340  193  18  26  238.912014  614.344430  0.001830  1.000000           5.0341700E-01
  5  339  193  18  27  567.773821  613.617779  0.000281  1.000000           5.0341700E-01
  6  339  192  18  28  74.453634  612.891127  0.006470  1.000000           5.0341700E-01
  5  338  192  18  29  205.011250  612.164476  0.010143  1.000000           5.0341700E-01
  5  338  193  18  30  338.809903  611.437825  0.000100  1.000000           5.0341700E-01
  5  337  193  18  31  151.204190  610.711174  0.000100  1.000000           5.0341700E-01
  6  337  192  18  32  464.175287  609.984523  0.010101  1.000000           5.0341700E-01
  6  337  192  19  1  85.020385  609.984523  0.005705  1.000000           5.0341700E-01
  6  337  191  19  2  543.891534  608.458136  0.007302  1.000000           5.0341700E-01
  6  337  190  19  3  574.363082  606.931748  0.002035  1.000000           5.0341700E-01
  6  337  189  19  4  46.115313  605.405361  0.000100  1.000000           5.0341700E-01
  6  293  209  20  1  165.682351  876.296576  0.032720  1.000000           5.0341700E-01
  6  294  209  20  2  501.428069  863.736685  0.021553  1.000000           5.0341700E-01
  6  295  209  20  3  504.838242  851.176795  0.006851  1.000000           5.0341700E-01
  6  296  209  20  4  527.560621  838.616904  0.013043  1.000000           5.0341700E-01
  6  297  209  20  5  338.796426  826.057013  0.022769  1.000000           5.0341700E-01
  6  297  209  21  1  99.439685  826.057013  0.000100  1.000000           5.0341700E-01
  6  297  210  21  2  184.335538  806.794211  0.023199  1.000000           5.0341700E-01
  6  298  210  21  3  520.143616  787.531408  0.098644  1.000000           5.0341700E-01
  6  299  210  21  4  502.561876  768.268606  0.077047  1.000000           5.0341700E-01
  6  300  210  21  5  226.529889  749.005804  0.080465  1.000000           5.0341700E-01
  6  300  210  22  1  335.464242  749.005804  0.003775  1.000000           5.0341700E-01
  6  300  211  22  2  15.258203  744.702616  0.166439  1.000000           5.0341700E-01
  6  301  211  22  3  70.514661  734.348578  0.165868  1.000000           5.0341700E-01
  6  301  210  22  4  371.417706  733.766607  0.000084  1.000000           5.0341700E-01
  6  301  211  22  5  100.768875  731.793052  0.012201  1.000000           5.0341700E-01
  6  302  211  22  6  537.192393  725.778570  0.017661  1.000000           5.0341700E-01
  6  303  211  22  7  86.828569  723.140570  0.010399  1.000000           5.0341700E-01
  6  303  210  22  8  477.973485  718.883487  0.010003  1.000000           5.0341700E-01
  6  304  210  22  9  78.781845  714.580300  0.001939  1.000000           5.0341700E-01
  6  304  211  22  10  419.062426  710.277111  0.000178  1.000000           5.0341700E-01
  6  304  210  22  11  35.876607  705.973923  0.039069  1.000000           5.0341700E-01
  6  305  210  22  12  175.940819  701.670735  0.038889  1.000000           5.0341700E-01
  6  305  211  22  13  350.456529  697.367547  0.000100  1.000000           5.0341700E-01
  6  305  210  22  14  86.525871  693.064359  0.015900  1.000000           5.0341700E-01
  6  306  210  22  15  629.879740  688.761171  0.028023  1.000000           5.0341700E-01
  6  307  210  22  16  108.283363  684.457983  0.011205  1.000000           5.0341700E-01
  6  307  211  22  17  533.985234  680.154795  0.011139  1.000000           5.0341700E-01
  6  308  211  22  18  620.604770  675.851607  0.015715  1.000000           5.0341700E-01
  6  309  211  22  19  542.558727  670.326605  0.013040  1.000000           5.0341700E-01
  6  310  211  22  20  347.264969  664.004583  0.009950  1.000000           5.0341700E-01
  6  310  210  22  21  219.679770  662.391607  0.007575  1.000000           5.0341700E-01
  6  311  210  22  22  604.216437  658.494574  0.003701  1.000000           5.0341700E-01
  6  312  210  22  23  43.103830  654.335666  0.000100  1.000000           5.0341700E-01
  6  312  209  22  24  556.007483  650.032479  0.003299  1.000000           5.0341700E-01
  6  312  208  22  25  343.306992  645.729290  0.015416  1.000000           5.0341700E-01
  6  313  208  22  26  387.459519  641.426102  0.017620  1.000000           5.0341700E-01
  6  313  207  22  27  524.815814  637.122914  0.013210  1.000000           5.0341700E-01
  6  313  206  22  28  510.706468  632.819726  0.021777  1.000000           5.0341700E-01
  6  313  205  22  29  50.955173  626.431585  0.021207  1.000000           5.0341700E-01
  6  314  205  22  30  590.418883  622.185553  0.012643  1.000000           5.0341700E-01
  6  314  204  22  31  117.861765  617.919561  0.012046  1.000000           5.0341700E-01
  6  295  203  23  1  236.665970  776.007972  0.000100  1.000000           5.0341700E-01
  6  296  203  23  2  532.380128  769.887305  0.000100  1.000000           5.0341700E-01
  6  296  202  23  3  52.732177  763.766639  0.030592  1.000000           5.0341700E-01
  6  297  202  23  4  606.810148  757.645972  0.031439  1.000000           5.0341700E-01
  6  298  202  23  5  528.790052  751.525306  0.012259  1.000000           5.0341700E-01
  6  299  202  23  6  511.637123  745.404639  0.011326  1.000000           5.0341700E-01
  6  300  202  23  7  521.906172  739.283973  0.015257  1.000000           5.0341700E-01
  6  301  202  23  8  500.380429  733.163306  0.019126  1.000000           5.0341700E-01
  6  302  202  23  9  502.988038  727.042640  0.016246  1.000000           5.0341700E-01
  6  303  202  23  10  542.693241  720.326880  0.009911  1.000000           5.0341700E-01
  6  304  202  23  11  509.277248  714.801307  0.009957  1.000000           5.0341700E-01
  6  305  202  23  12  506.782258  708.680640  0.017214  1.000000           5.0341700E-01
  6  306  202  23  13  197.029577  702.531897  0.028731  1.000000           5.0341700E-01
  6  306  203  23  14  371.269854  692.302894  0.022825  1.000000           5.0341700E-01
  6  307  203  23  15  570.836955  687.756873  0.009104  1.000000           5.0341700E-01
  6  308  203  23  16  318.482050  683.951880  0.008557  1.000000           5.0341700E-01
  6  308  203  24  1  211.124540  683.951880  0.063807  1.000000           5.0341700E-01
  6  309  203  24  2  235.627373  669.698890  0.028904  1.000000           5.0341700E-01
  6  309  204  24  3  320.429303  655.535315  0.021033  1.000000           5.0341700E-01
  6  310  204  24  4  509.469780  641.203986  0.045870  1.000000           5.0341700E-01
  6  311  204  24  5  422.759331  626.872657  0.043674  1.000000           5.0341700E-01
  6  311  204  25  1  79.659506  626.872657  0.033083  1.000000           5.0341700E-01
  6  312  204  25  2  507.109690  621.358863  0.016673  1.000000           5.0341700E-01
  6  313  204  25  3  505.925009  621.225867  0.003561  1.000000           5.0341700E-01
  6  314  204  25  4  413.602366  618.071875  0.006860  1.000000           5.0341700E-01
  6  314  204  26  1  91.398704  617.806445  0.001842  1.000000           5.0341700E-01
  5  315  204  26  2  507.945448  617.254443  0.001806  1.000000           5.0341700E-01
  5  316  204  26  3  178.747318  616.646472  0.000100  1.000000           5.0341700E-01
  6  316  205  26  4  211.802271  619.165266  0.002401  1.000000           5.0341700E-01
  5  316  204  26  5  111.288243  616.646472  0.013407  1.000000           5.0341700E-01
  5  317  204  26  6  644.161540  617.021472  0.000100  1.000000           5.0341700E-01
  5  318  204  26  7  218.950285  618.533485  0.000023  1.000000           5.0341700E-01
  5  318  203  26  8  615.218907  617.086475  0.002230  1.000000           5.0341700E-01
  5  318  202  26  9  42.697363  617.542468  0.000100  1.000000           5.0341700E-01
  5  319  202  26  10  560.614406  617.901705  0.000100  1.000000           5.0341700E-01
  5  319  201  26  11  307.870713  617.691112  0.001640  1.000000           5.0341700E-01
  5  320  201  26  12  190.170118  617.480518  0.006285  1.000000           5.0341700E-01
  6  306  199  27  1  5.892098  682.319922  0.000100  1.000000           5.0341700E-01
  6  306  200  27  2  264.862108  677.467818  0.000100  1.000000           5.0341700E-01
  6  306  199  27  3  45.651774  672.615714  0.071746  1.000000           5.0341700E-01
  6  307  199  27  4  615.629226  667.763610  0.015718  1.000000           5.0341700E-01
  6  308  199  27  5  500.334620  662.911506  0.011079  1.000000           5.0341700E-01
  6  309  199  27  6  501.984399  658.059401  0.012715  1.000000           5.0341700E-01
  6  310  199  27  7  502.394368  653.207297  0.011740  1.000000           5.0341700E-01
  6  311  199  27  8  502.219357  648.355193  0.018464  1.000000           5.0341700E-01
  6  312  199  27  9  279.717741  643.503089  0.026757  1.000000           5.0341700E-01
  6  312  199  28  1  351.443994  643.503089  0.022052  1.000000           5.0341700E-01
  6  312  200  28  2  25.110902  640.702918  0.013013  1.000000           5.0341700E-01
  6  313  200  28  3  682.040946  639.297889  0.000916  1.000000           5.0341700E-01
  6  314  200  28  4  507.448853  640.571875  0.000100  1.000000           5.0341700E-01
  6  315  200  28  5  536.837317  639.985877  0.001992  1.000000           5.0341700E-01
  6  316  200  28  6  347.846553  638.719886  0.002862  1.000000           5.0341700E-01
  6  316  200  29  1  236.231828  638.719886  0.007949  1.000000           5.0341700E-01
  6  317  200  29  2  519.801683  635.128760  0.007272  1.000000           5.0341700E-01
  6  318  200  29  3  512.130018  630.783057  0.013275  1.000000           5.0341700E-01
  5  319  200  29  4  502.675858  622.186866  0.014350  1.000000           5.0341700E-01
  5  320  200  29  5  522.001280  617.705909  0.001903  1.000000           5.0341700E-01
  5  320  201  29  6  133.796585  617.745948  0.000100  1.000000           5.0341700E-01
  5  320  201  30  1  225.367415  617.480518  0.007945  1.000000           5.0341700E-01
  5  320  200  30  2  182.455012  617.191496  0.006627  1.000000           5.0341700E-01
  5  321  200  30  3  503.992198  615.618457  0.003162  1.000000           5.0341700E-01
  5  322  200  30  4  503.776369  615.106433  0.000189  1.000000           5.0341700E-01
  5  323  200  30  5  503.956159  615.428455  0.000100  1.000000           5.0341700E-01
  5  324  200  30  6  503.863726  616.035409  0.000100  1.000000           5.0341700E-01
  5  325  200  30  7  555.613365  615.746387  0.002026  1.000000           5.0341700E-01
  5  325  199  30  8  500.315275  615.071460  0.000416  1.000000           5.0341700E-01
  5  325  198  30  9  385.618959  615.168343  0.000100  1.000000           5.0341700E-01
  5  326  198  30  10  346.600083  614.879322  0.000100  1.000000           5.0341700E-01
  5  326  197  30  11  395.181618  614.590300  0.000100  1.000000           5.0341700E-01
  5  327  197  30  12  207.902909  614.301278  0.002181  1.000000           5.0341700E-01
  5  327  196  30  13  619.976957  614.012256  0.000899  1.000000           5.0341700E-01
  5  328  196  30  14  116.805832  613.723234  0.006288  1.000000           5.0341700E-01
  5  328  195  30  15  560.467373  613.434212  0.008765  1.000000           5.0341700E-01
  5  328  194  30  16  423.849921  613.145190  0.000100  1.000000           5.0341700E-01
  5  327  194  30  17  154.525295  612.856169  0.000100  1.000000           5.0341700E-01
  5  327  193  30  18  542.128793  612.567147  0.000729  1.000000           5.0341700E-01
  5  327  192  30  19  461.606080  612.278125  0.010676  1.000000           5.0341700E-01
  5  317  196  31  1  3.219566  612.243986  0.000100  1.000000           5.0341700E-01
  5  317  195  31  2  451.651282  612.664030  0.000226  1.000000           5.0341700E-01
  5  318  195  31  3  517.274470  611.550016  0.001468  1.000000           5.0341700E-01
  5  319  195  31  4  538.413646  611.214017  0.000100  1.000000           5.0341700E-01
  5  320  195  31  5  113.879038  611.469999  0.000100  1.000000           5.0341700E-01
  5  320  194  31  6  549.515735  611.509000  0.000100  1.000000           5.0341700E-01
  5  321  194  31  7  219.638112  612.463041  0.001048  1.000000           5.0341700E-01
  5  321  193  31  8  438.378097  610.956998  0.001399  1.000000           5.0341700E-01
  5  322  193  31  9  330.775617  611.641019  0.000100  1.000000           5.0341700E-01