# MODFLOW2000 Well Package
OPTIONS
SPECIFY 1.000000e-01  0
END
     66645        50
     66645         0               Stress Period 1
         4       102       270-1138.8585 4 WAg00001
         6       139       319-2099.6367 4 WAg00002
         7         6       207-780.60419 4 WAg00003
         7         6       209-1058.5938 4 WAg00004
         9       403       111-1876.9139 4 WAg00005
         4       244       283-743.04407 4 WAg00006
         9       407       114-3336.3677 4 WAg00007
         9       403       115-1474.2234 4 WAg00008
         9       400       115-2000.8521 4 WAg00009
         2       257       248-296.67767 4 WAg00010
         4       254       246-3614.2917 4 WAg00011
         9       172       187-2695.1726 4 WAg00012
         9       344       170-26.475782 4 WAg00013
         9       401       111-1006.2051 4 WAg00014
         2       256       243-750.72424 4 WAg00015
         2       170       188-135.07242 4 WAg00016
         7       210        71-75.207291 4 WAg00017
         6       357        98-3232.5542 4 WAg00018
         6       358        95-263.89920 4 WAg00019
         4       256       248-253.38345 4 WAg00020
         6       360        99-46.140476 4 WAg00021
         4       250       242-1661.2679 4 WAg00022
         7       371       171-2832.2913 4 WAg00023
         2       255       245-119.16313 4 WAg00024
         4       174       191-188.63881 4 WAg00025
         7       335       113-1500.2826 4 WAg00026
         2       249       244-940.29156 4 WAg00027
         7       209        70-409.71472 4 WAg00028
         4       252       245-1450.9454 4 WAg00029
         3       271       261-87.277412 4 WAg00030
         9       175       189-375.50552 4 WAg00031
         9       175       190-271.21762 4 WAg00032
         9       403       113-1546.1823 4 WAg00033
         9       400       113-1650.7323 4 WAg00034
         4       243       242-216.54297 4 WAg00035
         4       241       240-256.26413 4 WAg00036
         4       256       258-1729.7126 4 WAg00037
         6       201       360-256.19968 4 WAg00038
         6       371       173-143.38316 4 WAg00039
         4       256       246-693.14063 4 WAg00040
         9       400       111-890.67401 4 WAg00041
         6       360        94-6317.1133 4 WAg00042
         6       355        97-1383.1919 4 WAg00043
         2       246       242-2145.3640 4 WAg00044
         6       202       361-318.20081 4 WAg00045
         6       202       360-167.37294 4 WAg00046
         4       255       248-189.20935 4 WAg00047
         4       174       190-139.03595 4 WAg00048
         4       174       191-117.89243 4 WAg00049
         4       256       247-298.19641 4 WAg00050
         9       174       189-173.46715 4 WAg00051
         9       175       189-121.89086 4 WAg00052
         4       173       191-55.100845 4 WAg00053
         7       333       127-1053.6088 4 WAg00054
         7       210        72-273.74170 4 WAg00055
         9       411       105-727.21442 4 WAg00056
         2       371        89-366.44675 4 WAg00057
         2       369        88-733.04700 4 WAg00058
         2       364        76-477.95804 4 WAg00059
         2       363        74-181.27362 4 WAg00060
         2       364        77-145.00041 4 WAg00061
         2       370        88-451.20108 4 WAg00062
         2       370        89-171.65770 4 WAg00063
         2       365        81-3188.3867 4 WAg00064
         2       365        78-353.71783 4 WAg00065
         9       411       105-407.90720 4 WAg00066
         2       373        89-323.43777 4 WAg00067
         9       362        74-66.790443 4 WAg00068
         9       412       106-414.41855 4 WAg00069
         2       365        77-109.41958 4 WAg00070
         2       365        79-53.547783 4 WAg00071
         2       367        83-671.77374 4 WAg00072
         2       364        79-196.39830 4 WAg00073
         9       168       121-60364.547 1 WGpADom00000
         7       152       153-50.221924 1 WGpADom00001
        13       149       119-11.494903 1 WGpADom00002
         9       179       118-70901.664 1 WGpADom00003
        11       152       116-775.61816 1 WGpADom00004
         9       163       119-96245.547 1 WGpADom00005
         7       157       126-19797.186 1 WGpADom00006
         9       176       120-9349.8955 1 WGpADom00007
         9       171       120-62248.547 1 WGpADom00008
         7       150       120-7584.2051 1 WGpADom00009
         7       177       120-4620.3403 1 WGpADom00010
         7       155       117-60290.383 1 WGpADom00011
         7       149       122-23505.781 1 WGpADom00012
        13       176       121-9764.7656 1 WGpADom00013
         9       204       199-8903.6992 1 WGpADom00014
        13       114       163-0.2853299 1 WGpADom00015
         7       147        84-2041.6565 1 WGpADom00016
        11       152       153-381.31485 1 WGpADom00017
         2       218       296-31172.404 1 WGpADom00018
         7       182       154-2486.9224 1 WGpADom00019
         7       193       153-855.63501 1 WGpADom00020
         7       209       161-0.2753120 1 WGpADom00021
         9       196       151-5103.0327 1 WGpADom00022
         7        86       195-2029.6200 1 WGpADom00024
         9        72       213-1532.6782 1 WGpADom00025
         7       104       196-120151.87 1 WGpADom00026
         7       104       196-167941.94 1 WGpADom00027
         9        95       217-0.2593908 1 WGpADom00028
         7       106       198-0.4521176 1 WGpADom00029
         7       106       198-30754.398 1 WGpADom00030
         7       111       215-3300.0686 1 WGpADom00031
         7        86       186-13679.052 1 WGpADom00032
         7        86       187-15657.378 1 WGpADom00033
        13        86       186-76680.164 1 WGpADom00034
         7        94       195-19840.826 1 WGpADom00035
        13        99       187-37877.258 1 WGpADom00036
         7        99       187-151.98422 1 WGpADom00037
         9        84       192-20967.598 1 WGpADom00038
         7        84       192-1959.3754 1 WGpADom00039
         7       108       193-3904.8875 1 WGpADom00040
         9       129       215-1855.4332 1 WGpADom00041
         9       129       215-285.98737 1 WGpADom00042
         9        84       190-27024.068 1 WGpADom00043
         7        84       190-40368.520 1 WGpADom00044
         9        79       197-13058.248 1 WGpADom00045
        11        76       227-11793.310 1 WGpADom00046
        13        83       192-10294.451 1 WGpADom00047
        11        14       208-90146.445 1 WGpADom00048
         9         7       209-23516.465 1 WGpADom00049
        11       221        82-56531.207 1 WGpADom00050
        11       205        87-62735.926 1 WGpADom00051
         9       205        87-31812.236 1 WGpADom00052
        11       205        86-42100.809 1 WGpADom00053
         9       205        86-38577.684 1 WGpADom00054
        11       195       104-1749.9768 1 WGpADom00055
         7       194       109-91743.797 1 WGpADom00056
         7       210       101-56415.637 1 WGpADom00057
         9       186        86-14347.931 1 WGpADom00058
         7       184       120-40482.457 1 WGpADom00059
        11       185       121-4438.6030 1 WGpADom00060
         9       186       122-6962.8428 1 WGpADom00061
        11       197        96-90154.836 1 WGpADom00062
         7       193        79-38651.980 1 WGpADom00063
        13       185        69-80034.258 1 WGpADom00064
        11       185        69-44943.148 1 WGpADom00065
         9       178        80-23249.504 1 WGpADom00066
        11       185       106-28256.975 1 WGpADom00067
        11       199        83-47873.820 1 WGpADom00068
        11       201        99-82574.906 1 WGpADom00069
         9       193        83-34069.719 1 WGpADom00070
        11       193        83-38636.660 1 WGpADom00071
         9       178       105-30788.357 1 WGpADom00072
         9       269         9-2811.7441 1 WGpADom00073
         9       269         9-10041.943 1 WGpADom00074
         9        39       259-42421.727 1 WGpADom00077
        13        50       268-19579.258 1 WGpADom00078
        13        17       251-108773.66 1 WGpADom00079
        11        23       251-5286.3999 1 WGpADom00080
        13        18       254-13052.839 1 WGpADom00081
         4        89       250-174989.27 1 WGpADom00082
         4       100       253-1796.5865 1 WGpADom00083
         4       109       251-130443.20 1 WGpADom00084
        11       129       250-1048.0953 1 WGpADom00085
        11       128       253-9518.6475 1 WGpADom00086
         8        82       232-61260.430 1 WGpADom00087
         8       117       269-404935.47 1 WGpADom00088
         9       291       167-14667.822 1 WGpADom00089
         7       266       185-40003.152 1 WGpADom00090
         7       265       177-20954.031 1 WGpADom00091
         7       264       149-19620.594 1 WGpADom00092
         7       282       218-17906.172 1 WGpADom00093
         7       260       191-87625.945 1 WGpADom00094
         9       276       169-10172.229 1 WGpADom00095
         7       275       173-15239.295 1 WGpADom00096
         7       270       164-3809.8237 1 WGpADom00097
         7       297       160-4190.8062 1 WGpADom00098
         7       263       179-13334.384 1 WGpADom00099
         9       281       224-4000.3149 1 WGpADom00100
         9       275       210-22858.943 1 WGpADom00101
        11       271       178-15239.295 1 WGpADom00102
         7       252       194-3809.8237 1 WGpADom00103
         9       273       204-21335.014 1 WGpADom00104
         9       288       187-2857.3679 1 WGpADom00105
        11       270       170-36574.309 1 WGpADom00106
        13       271       178-17296.600 1 WGpADom00107
         9       286       175-2895.4661 1 WGpADom00108
        11       137       264-114001.16 1 WGpADom00109
         7       170       269-62948.469 1 WGpADom00110
         7       208       266-54522.297 1 WGpADom00111
         9       190       261-82725.195 1 WGpADom00112
         9       189       199-137996.73 1 WGpADom00113
         9       157       247-4372.7676 1 WGpADom00114
        11       193       220-9078.7324 1 WGpADom00115
        11       196       226-5447.2397 1 WGpADom00116
        13       164       206-36314.930 1 WGpADom00117
         9       192       200-36314.930 1 WGpADom00118
        13       187       216-25420.451 1 WGpADom00119
         9       262        65-50349.430 1 WGpADom00120
        11       245        45-25174.715 1 WGpADom00121
         9       235        76-47831.957 1 WGpADom00122
        11       262        72-83076.555 1 WGpADom00123
         9       235        80-37762.070 1 WGpADom00124
         7       243       135-19256.230 1 WGpADom00125
        11       243       135-1398.1821 1 WGpADom00126
         7       244       145-27030.891 1 WGpADom00127
        11       264       141-51531.141 1 WGpADom00128
        11       231       145-7282.9790 1 WGpADom00129
        13       236       154-20083.506 1 WGpADom00130
         9       241       150-71619.695 1 WGpADom00131
         9       247       144-25668.127 1 WGpADom00132
         9       233       159-59477.418 1 WGpADom00133
         7       247       157-13771.641 1 WGpADom00134
         7       226       212-46610.172 1 WGpADom00135
         9       231       210-4730.9072 1 WGpADom00136
         9       238       218-36842.648 1 WGpADom00137
        13       238       218-14751.889 1 WGpADom00138
         7       261       212-2033.6422 1 WGpADom00139
         9       234       197-42294.555 1 WGpADom00140
         9       221       206-29626.125 1 WGpADom00141
         9       224       195-32694.635 1 WGpADom00142
         7       236       191-21250.764 1 WGpADom00143
        13       236       207-11928.689 1 WGpADom00144
         9       221       196-20617.029 1 WGpADom00145
         9       223       189-6878.3047 1 WGpADom00146
         5       210       128-48252.652 1 WGpADom00147
        11       204       135-13885.128 1 WGpADom00148
         9       206       142-13095.468 1 WGpADom00149
         9       206       142-21438.246 1 WGpADom00150
         9       206       142-35659.754 1 WGpADom00151
        11       221       135-29272.416 1 WGpADom00152
        13       224       149-36087.152 1 WGpADom00153
        11       210       127-1322.2511 1 WGpADom00154
        11       221       136-40368.453 1 WGpADom00155
        13       213       148-29823.732 1 WGpADom00156
        11       213       148-39830.023 1 WGpADom00157
         7        41       288-17012.619 1 WGpADom00158
        11        44       274-5486.5698 1 WGpADom00159
        13        63       277-31898.662 1 WGpADom00160
        13        59       290-34025.238 1 WGpADom00161
         9       173       172-12295.819 1 WGpADom00162
         7       204       182-75066.750 1 WGpADom00163
         9       193       177-70.455513 1 WGpADom00164
         9       190       173-15940.480 1 WGpADom00165
        11       207       182-13444.979 1 WGpADom00166
        11       210       184-339.36435 1 WGpADom00167
        13       178       385-120585.55 1 WGpADom00168
         1       166       373-193.79306 1 WGpADom00169
         5       165       372-45286.555 1 WGpADom00170
         7       159       375-574.19299 1 WGpADom00171
         7       158       375 0.000e+00 1 WGpADom00172
         9       204       206-79359.750 1 WGpADom00173
         9       200       204-26108.643 1 WGpADom00174
         9       200       204-11958.849 1 WGpADom00175
         7       202       192-10117.280 1 WGpADom00176
         9       203       219-6334.6450 1 WGpADom00177
        11       209       196-2068.5015 1 WGpADom00178
         9       203       219-10157.126 1 WGpADom00179
         9       133       185-15120.732 1 WGpADom00180
         2       145       178-21001.018 1 WGpADom00181
         9       133       186-58802.848 1 WGpADom00182
        13       135       186-33601.629 1 WGpADom00183
         9       135       187-16800.814 1 WGpADom00184
         9       160       248-98387.273 1 WGpADom00185
         9       163       251-115878.34 1 WGpADom00186
         6       178       258 0.000e+00 1 WGpADom00187
         9       170       226-186.51801 1 WGpADom00188
        11       182       252-3211.1846 1 WGpADom00189
        11       138       265-512.07617 1 WGpADom00190
         9       154       203-31245.291 1 WGpADom00191
        11       146       213-4686.7935 1 WGpADom00192
         9       160       211-20830.193 1 WGpADom00193
         7       159       212-8332.0781 1 WGpADom00194
         9       147       212-15622.646 1 WGpADom00195
        11       153       207-8123.7759 1 WGpADom00196
        11       238        43-39260.172 1 WGpADom00197
        11       238        42-471.53265 1 WGpADom00198
         9       238        45-14522.796 1 WGpADom00199
         9       245        19-53697.094 1 WGpADom00200
         9       137       196-15368.756 1 WGpADom00201
         9       132       204-3191.3713 1 WGpADom00202
         9       133       197-31756.420 1 WGpADom00203
         9       132       192-30111.652 1 WGpADom00204
         9       127       196-8075.7642 1 WGpADom00205
         5       249       294-26858.398 1 WGpADom00206
         5       278       260-8238.2803 1 WGpADom00207
         9       240       279-68.268372 1 WGpADom00208
         4       255       260-21517.184 1 WGpADom00209
        13       252       254-60.479259 1 WGpADom00210
        13       235       243-16352.228 1 WGpADom00211
        13       238       247-1013.5179 1 WGpADom00212
        13       181        69-31177.063 1 WGpADom00213
         7       146       106-45278.555 1 WGpADom00214
         7       150        99-15413.976 1 WGpADom00215
         7       154       101-13872.578 1 WGpADom00216
         2       118       240-58421.148 1 WGpADom00217
         9        20       202-3361.7112 1 WGpADom00218
         9        20       202-16136.213 1 WGpADom00219
         9        20       202-11765.988 1 WGpADom00220
         9        20       202-10757.476 1 WGpADom00221
         9       202       360-12326.188 1 WGpADom00222
         5       202       360-1334.6759 1 WGpADom00223
         7       202       338-2756.7483 1 WGpADom00224
         7       203       360-1259.8312 1 WGpADom00225
         7       135       298-3578.0906 1 WGpADom00226
         7       134       300-8945.2266 1 WGpADom00227
         7       143       305-31308.291 1 WGpADom00228
         9       194       245-3851.7312 1 WGpADom00229
         6       153       276-10843.235 1 WGpADom00230
         7       151       275-4819.2158 1 WGpADom00231
         9       198       295-2167.3352 1 WGpADom00232
         9       295       208-2347.8186 1 WGpADom00233
         9       295       206-2347.8186 1 WGpADom00234
         9       295       213-3991.2915 1 WGpADom00235
        11       181        72-5860.2549 1 WGpADom00236
        11       181        77-11720.510 1 WGpADom00237
         4       263       262-11160.934 1 WGpADom00238
         9       280       244-3136.1780 1 WGpADom00239
         9       280       244-101.71815 1 WGpADom00240
         9       279       246-49.213825 1 WGpADom00241
         9       279       245-6507.9282 1 WGpADom00242
         7       311        80-3350.3933 1 WGpADom00243
        13       318        82-4123.5610 1 WGpADom00244
         7       298       173-2263.5393 1 WGpADom00245
         9       295       174-4187.5479 1 WGpADom00246
         7       190       316-6999.3730 1 WGpADom00247
         7       187       315-2651.2776 1 WGpADom00248
        11       230       229-6871.0996 1 WGpADom00249
         9       317       114-2705.7324 1 WGpADom00250
         7       321       119-2195.5088 1 WGpADom00251
         5       259       339-6076.6987 1 WGpADom00252
         2       359        76-3023.2959 1 WGpADom00253
         9       348        71-5441.9326 1 WGpADom00254
         9       256       149-6451.5112 1 WGpADom00255
        11       221       310-11193.083 1 WGpADom00256
         5       246       332-5712.0801 1 WGpADom00257
        11       252       276-4527.9893 1 WGpADom00258
         7       203       359-2095.2578 1 WGpADom00260
         7       267       230-1153.6825 1 WGpADom00261
         7       267       230-1583.4858 1 WGpADom00262
        13       267       230-1470.3798 1 WGpADom00263
         9       225        91-3346.0806 1 WGpADom00264
         7       238       145-3401.6458 1 WGpADom00265
         6       268       152-1225.4800 1 WGpADom00266
         7       266       153-582.10297 1 WGpADom00267
         7       268       152-428.91797 1 WGpADom00268
        11       227       150-2832.2649 1 WGpADom00269
         9       233       194-1760.8223 1 WGpADom00270
         9       233       194-1760.8223 1 WGpADom00271
         6       263       170-877.92133 1 WGpADom00272
         6       263       170-464.78186 1 WGpADom00273
         7       263       170-1487.3020 1 WGpADom00274
         6       262       171-619.70917 1 WGpADom00275
         7       257       207-2010.6287 1 WGpADom00276
         9       286       175-1959.4126 1 WGpADom00277
         7       310       189-2633.8691 1 WGpADom00278
         9       163       190-1043.4026 1 WGpADom00279
         9       162       190-1043.4026 1 WGpADom00280
         4       259       249-2295.8362 1 WGpADom00281
         7       204       108-1240.0634 1 WGpADom00282
         7       288       196-2313.0320 1 WGpADom00283
         7       342        93-3513.9500 1 WGpADom00284
         9       315       146-2006.8118 1 WGpADom00285
         9       254       165-2599.3440 1 WGpADom00286
         7       264       147-5961.2832 1 WGpADom00287
         2       175       302-1329.2041 1 WGpADom00288
         2       175       302-408.98587 1 WGpADom00289
        11       264       154-1810.4664 1 WGpADom00290
         7       323        92-1379.5337 1 WGpADom00291
         9       300       186-1348.2645 1 WGpADom00292
         9       259       142-1088.0509 1 WGpADom00293
         7       263       150-1012.3295 1 WGpADom00294
         9       181       184-1336.2493 1 WGpADom00295
        11       225       297-970.27930 1 WGpADom00296
         9       154       200-1331.5220 1 WGpADom00297
         9       279       199-1140.1748 1 WGpADom00298
         9       321       143-1392.2162 1 WGpADom00299
         2       163       191-1136.1338 1 WGpADom00300
         7       261       241-1470.0868 1 WGpADom00301
         7       247       163-1232.9568 1 WGpADom00302
         9       297       165-941.28528 1 WGpADom00303
        11       148       166-786.04926 1 WGpADom00304
         9       217       329-555.12500 1 WGpADom00305
         9       217       329-266.45999 1 WGpADom00306
         1       227       332-1953.3119 1 WGpADom00307
         8       312       240-1167.6764 1 WGpADom00308
         2       162       197-849.98761 1 WGpADom00309
         9       156       200-867.79034 1 WGpADom00310
         9       224       129-1860.6265 1 WGpADom00311
         5       240       290-1035.3381 1 WGpADom00312
        10       388       120-1005.2443 1 WGpADom00313
         2       362        81-884.02557 1 WGpADom00314
         9       231       300-1016.0145 1 WGpADom00315
         9       232       207-885.98846 1 WGpADom00316
         9       246        17-529.53986 1 WGpADom00317
         5       190       119-1020.9586 1 WGpADom00318
         7       167        91-585.65424 1 WGpADom00319
         7       168        92-585.65424 1 WGpADom00320
         7       318        93-754.63202 1 WGpADom00321
         6       189       121-928.14417 1 WGpADom00322
         6       262       172-928.14417 1 WGpADom00323
         7       131       277-806.04315 1 WGpADom00324
         7       288       207-779.21277 1 WGpADom00325
         9       335        99-660.63086 1 WGpADom00326
         7       191       123-618.26312 1 WGpADom00327
         7       327       172-721.72888 1 WGpADom00328
         7       265       145-955.71112 1 WGpADom00329
         5       318       239-911.77136 1 WGpADom00330
         9       225       129-930.23267 1 WGpADom00331
         9       359       153-754.55615 1 WGpADom00332
         7       246       168-547.95819 1 WGpADom00333
         7       316        82-754.11713 1 WGpADom00334
         9       147       165-716.64264 1 WGpADom00335
         7       272       195-696.49866 1 WGpADom00336
         9       169       191-946.05701 1 WGpADom00337
         7       312       169-720.41644 1 WGpADom00338
         5       273       271-855.81061 1 WGpADom00339
         9       260       141-1244.3657 1 WGpADom00340
         9       246       163-572.91565 1 WGpADom00341
         9       259       143-501.52335 1 WGpADom00342
         9       280       201-494.79196 1 WGpADom00343
         9       171       220-626.49731 1 WGpADom00344
         9       159       209-460.17096 1 WGpADom00345
         9       333        98-498.22562 1 WGpADom00346
         9       356       173-986.06586 1 WGpADom00347
         6       267       170-917.59949 1 WGpADom00348
         9       269       227-800.28992 1 WGpADom00349
         6       316       184-66.421883 1 WGpADom00350
         7       316       184-425.10007 1 WGpADom00351
         7       253       139-677.33533 1 WGpADom00352
         6       317       243-420.07574 1 WGpADom00353
         7       312       176-455.11414 1 WGpADom00354
         7       268       197-439.80023 1 WGpADom00355
         7       310       195-562.58862 1 WGpADom00356
         2       165       194-350.72998 1 WGpADom00357
         7       282       232-266.07816 1 WGpADom00358
         7       282       232-161.25949 1 WGpADom00359
         7       255       140-464.07208 1 WGpADom00360
         7       298       177-348.06781 1 WGpADom00361
         7       217       327-385.90085 1 WGpADom00362
         7       256       141-426.26202 1 WGpADom00363
         7       334        91-439.77258 1 WGpADom00364
         9       133       274-458.30188 1 WGpADom00365
         2       149       171-266.84146 1 WGpADom00366
        11       172       192-214.92943 1 WGpADom00367
         9       168       121-15661.331 2 WGpAOther00000
         7       152       153-13.029869 2 WGpAOther00001
        13       149       119-2.9823048 2 WGpAOther00002
         9       179       118-18395.143 2 WGpAOther00003
        11       152       116-201.23091 2 WGpAOther00004
         9       163       119-24970.506 2 WGpAOther00005
         7       157       126-5136.2979 2 WGpAOther00006
         9       176       120-2425.7915 2 WGpAOther00007
         9       171       120-16150.127 2 WGpAOther00008
         7       150       120-1967.6906 2 WGpAOther00009
         7       177       120-1198.7280 2 WGpAOther00010
         7       155       117-15642.090 2 WGpAOther00011
         7       149       122-6098.4771 2 WGpAOther00012
        13       176       121-2533.4277 2 WGpAOther00013
         9       204       199-2310.0278 2 WGpAOther00014
        13       114       163-0.0740277 2 WGpAOther00015
         7       147        84-529.69928 2 WGpAOther00016
        11       152       153-98.930550 2 WGpAOther00017
         2       218       296-8087.5508 2 WGpAOther00018
         7       182       154-645.22168 2 WGpAOther00019
         7       193       153-221.99095 2 WGpAOther00020
         7       209       161-0.0714286 2 WGpAOther00021
         9       196       151-1323.9607 2 WGpAOther00022
         7        86       195-526.57648 2 WGpAOther00024
         9        72       213-397.64700 2 WGpAOther00025
         7       104       196-31172.902 2 WGpAOther00026
         7       104       196-43571.840 2 WGpAOther00027
         9        95       217-0.0672979 2 WGpAOther00028
         7       106       198-0.1173000 2 WGpAOther00029
         7       106       198-7979.1006 2 WGpAOther00030
         7       111       215-856.18909 2 WGpAOther00031
         7        86       186-3548.9731 2 WGpAOther00032
         7        86       187-4062.2417 2 WGpAOther00033
        13        86       186-19894.352 2 WGpAOther00034
         7        94       195-5147.6201 2 WGpAOther00035
        13        99       187-9827.0967 2 WGpAOther00036
         7        99       187-39.431675 2 WGpAOther00037
         9        84       192-5439.9561 2 WGpAOther00038
         7        84       192-508.35181 2 WGpAOther00039
         7       108       193-1013.1068 2 WGpAOther00040
         9       129       215-481.38443 2 WGpAOther00041
         9       129       215-74.198235 2 WGpAOther00042
         9        84       190-7011.2822 2 WGpAOther00043
         7        84       190-10473.444 2 WGpAOther00044
         9        79       197-3387.9082 2 WGpAOther00045
        11        76       227-3059.7253 2 WGpAOther00046
        13        83       192-2670.8525 2 WGpAOther00047
        11        14       208-23388.121 2 WGpAOther00048
         9         7       209-6101.2490 2 WGpAOther00049
        11       221        82-14666.787 2 WGpAOther00050
        11       205        87-16276.575 2 WGpAOther00051
         9       205        87-8253.5527 2 WGpAOther00052
        11       205        86-10922.880 2 WGpAOther00053
         9       205        86-10008.820 2 WGpAOther00054
        11       195       104-454.02420 2 WGpAOther00055
         7       194       109-23802.547 2 WGpAOther00056
         7       210       101-14636.803 2 WGpAOther00057
         9       186        86-3722.5110 2 WGpAOther00058
         7       184       120-10503.005 2 WGpAOther00059
        11       185       121-1151.5771 2 WGpAOther00060
         9       186       122-1806.4806 2 WGpAOther00061
        11       197        96-23390.297 2 WGpAOther00062
         7       193        79-10028.096 2 WGpAOther00063
        13       185        69-20764.557 2 WGpAOther00064
        11       185        69-11660.313 2 WGpAOther00065
         9       178        80-6031.9873 2 WGpAOther00066
        11       185       106-7331.1543 2 WGpAOther00067
        11       199        83-12420.664 2 WGpAOther00068
        11       201        99-21423.715 2 WGpAOther00069
         9       193        83-8839.2471 2 WGpAOther00070
        11       193        83-10024.121 2 WGpAOther00071
         9       178       105-7987.9111 2 WGpAOther00072
         9       269         9-729.49536 2 WGpAOther00073
         9       269         9-2605.3406 2 WGpAOther00074
         9        39       259-11006.141 2 WGpAOther00077
        13        50       268-5079.7573 2 WGpAOther00078
        13        17       251-28220.873 2 WGpAOther00079
        11        23       251-1371.5344 2 WGpAOther00080
        13        18       254-3386.5046 2 WGpAOther00081
         4        89       250-45400.238 2 WGpAOther00082
         4       100       253-466.11694 2 WGpAOther00083
         4       109       251-33842.945 2 WGpAOther00084
        11       129       250-271.92398 2 WGpAOther00085
        11       128       253-2469.5735 2 WGpAOther00086
         8        82       232-15893.764 2 WGpAOther00087
         8       117       269-105058.82 2 WGpAOther00088
         9       291       167-3805.5054 2 WGpAOther00089
         7       266       185-10378.651 2 WGpAOther00090
         7       265       177-5436.4365 2 WGpAOther00091
         7       264       149-5090.4814 2 WGpAOther00092
         7       282       218-4645.6821 2 WGpAOther00093
         7       260       191-22734.188 2 WGpAOther00094
         9       276       169-2639.1428 2 WGpAOther00095
         7       275       173-3953.7720 2 WGpAOther00096
         7       270       164-988.44299 2 WGpAOther00097
         7       297       160-1087.2872 2 WGpAOther00098
         7       263       179-3459.5503 2 WGpAOther00099
         9       281       224-1037.8651 2 WGpAOther00100