xul 1089539.86554      # upper left x-coordinate
yul 770552.71513       # upper left y-coordinate
rotation 0             # model grid rotation (degrees)
length_units feet      # model length units 
time_units days        # model time units 
start_date 1/1/2005    # state date of the model
start_time 00:00:00    # start time of the model
model MODFLOW-NWT      # MODFLOW model type 
epsg 102749            # epsg code
